@<TRIPOS>MOLECULE
LAMMPS data file via write_data, version 29 Oct 2020, timestep = 1000 > lmp2SYBYLmol2 v3.2 / 13 October 2023 w/remove_PBC_bonds=True comments=
  13114 18821    0    0    0
SMALL
NO_CHARGES
****
Energy = 0

@<TRIPOS>ATOM
      1 C          -25.0847   -21.9948   -20.3693 C       7      r7    -0.0011
      2 C          -24.6311   -23.3611   -20.6600 C       7      r7     0.0002
      3 C          -23.7515   -24.7193   -24.6018 C       0      r0     0.0008
      4 C          -23.1874   -23.3693   -20.7717 C       5      r5     0.0010
      5 C          -22.6400   -23.9966   -24.3780 C       6      r6     0.0011
      6 C          -22.3060   -24.1060   -21.7859 C       0      r0     0.0009
      7 C          -21.9401   -23.5745   -23.1508 C       6      r6     0.0013
      8 C          -21.0424   -22.4082   -23.3469 C       5      r5     0.0007
      9 C          -20.6033   -22.0651   -24.6950 C       7      r7     0.0010
     10 C          -20.1342   -21.5556   -22.5963 C       5      r5     0.0012
     11 C          -19.7273   -20.8519   -24.8260 C       7      r7     0.0005
     12 C          -19.5492   -22.1536   -21.3867 C       7      r7     0.0004
     13 C          -19.4486   -20.5673   -23.4645 C       7      r7     0.0002
     14 C          -18.4089   -22.8984   -21.9368 C       7      r7    -0.0001
     15 C          -18.1609   -24.3585   -21.6223 C       7      r7    -0.0019
     16 C          -17.2302   -22.0826   -22.2128 C       7      r7     0.0006
     17 C          -16.9543   -20.9753   -21.2774 C       7      r7     0.0011
     18 C          -16.5259   -23.4630   -24.1367 C       7      r7     0.0011
     19 C          -16.0925   -22.5617   -23.0511 C       7      r7     0.0004
     20 C          -14.7861   -22.5862   -22.4262 C       7      r7     0.0020
     21 C          -14.5995   -22.7746   -21.0072 C       7      r7     0.0010
     22 C          -13.5560   -23.0547   -23.1288 C       7      r7     0.0003
     23 C          -13.3920   -23.5672   -20.8621 C       5      r5    -0.0012
     24 C          -13.2128   -22.4553   -24.3961 C       7      r7     0.0002
     25 C          -12.7060   -23.6519   -22.1194 C       7      r7     0.0014
     26 C          -11.7636   -22.3064   -24.5805 C       7      r7    -0.0008
     27 C          -11.3446   -24.2584   -22.3091 C       7      r7    -0.0012
     28 C          -10.8858   -23.5515   -24.6293 C       7      r7     0.0001
     29 C          -10.5755   -24.3907   -23.5186 C       7      r7    -0.0020
     30 C           -8.2759   -24.7349   -21.2573 C       6      r6     0.0020
     31 C           -7.7954   -21.5586   -24.2532 C       7      r7    -0.0002
     32 C           -7.8540   -23.7973   -22.3572 C       7      r7     0.0018
     33 C           -7.9033   -24.2877   -23.7062 C       7      r7     0.0027
     34 C           -7.5875   -21.2322   -22.9568 C       7      r7     0.0001
     35 C           -7.5789   -21.9931   -20.6605 C       6      r6    -0.0007
     36 C           -7.6684   -22.3626   -22.0625 C       7      r7     0.0010
     37 C           -6.8151   -22.4142   -24.8286 C       7      r7    -0.0011
     38 C           -6.9358   -23.8657   -24.6901 C       7      r7     0.0006
     39 C           -5.4087   -20.5212   -21.1681 C       0      r0    -0.0001
     40 C           -4.3574   -21.1295   -21.2523 C       0      r0     0.0002
     41 C           -4.2000   -23.1023   -24.5646 C       0      r0     0.0010
     42 C           -4.0348   -20.7987   -24.8081 C       7      r7    -0.0032
     43 C           -3.8906   -21.9975   -23.8334 C       6      r6    -0.0018
     44 C           -3.1662   -21.7839   -21.4242 C       0      r0     0.0010
     45 C           -2.7455   -21.9433   -22.8262 C       6      r6    -0.0003
     46 C           -1.4802   -24.6086   -20.9398 C       0      r0     0.0083
     47 C           -1.5028    24.9223   -24.7388 C       0      r0    -0.0046
     48 C           -1.5346   -21.1697   -24.7487 C       5      r5    -0.0057
     49 C           -1.4620   -21.9649   -23.5074 C       6      r6     0.0016
     50 C           -0.7212   -24.4015   -23.6498 C       5      r5     0.0058
     51 C           -0.4026   -23.0031   -23.3559 C       5      r5    -0.0021
     52 C            1.0440   -23.1587   -23.0165 C       7      r7    -0.0001
     53 C            1.3541   -24.5262   -22.6221 C       7      r7    -0.0031
     54 C            1.1982   -21.1390   -20.5375 C       5      r5     0.0015
     55 C            2.3103   -22.4191   -23.1796 C       7      r7    -0.0038
     56 C            2.4510   -21.1441   -21.1880 C       7      r7     0.0005
     57 C            2.7007   -21.6804   -24.3500 C       7      r7    -0.0035
     58 C            3.0564   -22.3004   -21.8925 C       7      r7    -0.0027
     59 C            3.6993   -23.2712   -21.0671 C       7      r7    -0.0000
     60 C            3.8675   -24.6302   -21.6576 C       7      r7    -0.0024
     61 C            3.8283   -20.7690   -24.0216 C       7      r7     0.0040
     62 C            5.0130   -24.3122   -24.5018 C       7      r7    -0.0025
     63 C            5.2017   -20.7061   -24.6228 C       7      r7     0.0083
     64 C            5.7441   -24.5276   -23.2215 C       7      r7     0.0019
     65 C            5.9681   -21.8966   -24.9130 C       7      r7    -0.0019
     66 C            6.7510   -23.5651   -22.7735 C       7      r7    -0.0027
     67 C            7.0605   -23.4787   -21.3603 C       7      r7     0.0003
     68 C            7.3307   -21.6836   -24.3661 C       7      r7    -0.0024
     69 C            7.5654   -22.3036   -20.5879 C       7      r7    -0.0043
     70 C            7.7552   -22.6863   -23.4021 C       7      r7    -0.0020
     71 C            8.9271   -21.6385   -20.5791 C       7      r7    -0.0009
     72 C            9.1100   -22.7956   -22.7932 C       7      r7    -0.0083
     73 C            9.6107   -24.1904   -22.9345 C       6      r6     0.0012
     74 C            9.6917   -21.9225   -21.7839 C       7      r7     0.0347
     75 C           10.6569   -24.6246   -22.1279 C       5      r5    -0.0048
     76 C           11.1122   -22.2736   -21.5698 C       6      r6    -0.0568
     77 C           11.0954   -21.0779   -24.5740 C       6      r6     0.0012
     78 C           11.4987   -23.6444   -21.7472 C       5      r5     0.0093
     79 C           11.9564   -21.3835   -20.9144 C       7      r7     0.2509
     80 C           12.4881   -20.7045   -24.7754 C       5      r5     0.0025
     81 C           12.6293   -24.2040   -21.2139 C       7      r7    -0.0066
     82 C           13.3497   -23.3477   -20.4203 C       7      r7     0.0080
     83 C           13.4819   -22.8681    24.8170 C       6      r6     0.0036
     84 C           14.6517   -23.5739   -24.8498 C       0      r0     0.0008
     85 C           15.9222   -23.4521   -24.0178 C       0      r0     0.0001
     86 C           16.6491   -22.3900   -23.7271 C       0      r0    -0.0006
     87 C           16.7080   -24.7200   -23.7078 C       0      r0    -0.0013
     88 C           17.4338   -21.2918   -23.4402 C       7      r7    -0.0024
     89 C           18.3871   -20.9561   -24.5661 C       7      r7    -0.0024
     90 C           19.9879   -20.9931   -20.8991 C       0      r0     0.0027
     91 C           21.4986   -21.3858   -21.4085 C       0      r0     0.0030
     92 C           21.9090   -20.8122   -22.4524 C       0      r0     0.0013
     93 C           22.8379   -21.8925   -20.7932 C       7      r7     0.0006
     94 C           23.6034   -24.3255   -20.4649 C       7      r7     0.0008
     95 C           24.1927   -21.2645   -20.8581 C       7      r7    -0.0018
     96 C           25.0154   -24.5776   -20.6474 C       7      r7     0.0017
     97 C           25.2131   -17.5865   -23.1047 C       7      r7    -0.0007
     98 C          -25.0216   -17.9709   -24.4562 C       5      r5    -0.0010
     99 C          -24.4052   -16.5815   -22.4630 C       7      r7    -0.0009
    100 C          -23.2506   -16.0857   -23.1536 C       5      r5    -0.0014
    101 C          -23.0196   -16.4125   -24.5514 C       7      r7    -0.0003
    102 C          -19.2524   -16.6565   -21.4094 C       6      r6     0.0003
    103 C          -18.6233   -18.9769   -20.9085 C       7      r7     0.0011
    104 C          -18.2820   -17.7102   -21.5284 C       7      r7    -0.0001
    105 C          -18.1463   -19.8816   -23.2262 C       7      r7     0.0000
    106 C          -17.8023   -19.9040   -21.7708 C       7      r7     0.0006
    107 C          -17.3505   -19.0364   -24.0806 C       7      r7    -0.0002
    108 C          -16.9893   -17.5212   -22.2030 C       7      r7    -0.0002
    109 C          -16.6439   -16.0783   -22.0273 C       6      r6     0.0005
    110 C          -16.3952   -18.3077   -23.2601 C       7      r7    -0.0001
    111 C          -14.8705   -18.5993   -23.4070 C       0      r0    -0.0003
    112 C          -14.0560   -18.2838   -24.6371 C       0      r0     0.0006
    113 C          -13.9672   -18.8151   -22.4248 C       0      r0     0.0008
    114 C          -12.8455   -18.9934   -21.7202 C       0      r0    -0.0001
    115 C          -11.8545   -19.7726   -24.6561 C       7      r7     0.0003
    116 C          -11.6173   -18.4113   -22.4950 C       6      r6     0.0023
    117 C          -11.6152   -16.3364   -23.9079 C       7      r7    -0.0001
    118 C          -11.4815   -16.9311   -22.5705 C       6      r6     0.0013
    119 C          -11.0332   -18.9876   -23.6703 C       6      r6     0.0011
    120 C          -11.2656   -15.9881   -21.4394 C       0      r0     0.0019
    121 C          -10.5639   -16.7650   -24.8353 C       7      r7    -0.0009
    122 C          -10.0361   -18.0820   -24.4409 C       6      r6     0.0003
    123 C           -7.9553   -15.9625   -20.8501 C       7      r7     0.0012
    124 C           -7.6154   -19.1731   -24.7935 C       5      r5    -0.0002
    125 C           -7.2714   -18.9075   -23.3273 C       6      r6     0.0002
    126 C           -7.1893   -19.9759   -22.4553 C       6      r6     0.0002
    127 C           -7.1162   -16.1651   -23.1653 C       6      r6     0.0008
    128 C           -6.8692   -16.9104   -20.4563 C       7      r7     0.0009
    129 C           -6.9257   -17.6210   -22.8094 C       6      r6    -0.0008
    130 C           -6.6044   -19.8580   -21.0845 C       6      r6     0.0008
    131 C           -6.2601   -17.6778   -21.5211 C       6      r6     0.0017
    132 C           -4.8733   -16.5777   -24.1542 C       5      r5     0.0074
    133 C           -4.8238   -17.9956   -21.3145 C       6      r6    -0.0018
    134 C           -4.0507   -17.6332   -23.6162 C       5      r5     0.0008
    135 C           -3.8622   -18.1626   -22.2878 C       5      r5    -0.0014
    136 C           -2.7489   -17.7515   -24.1668 C       5      r5     0.0068
    137 C           -2.5438   -18.6842   -22.0686 C       5      r5    -0.0002
    138 C           -2.1370   -19.2135   -20.8802 C       6      r6    -0.0013
    139 C           -1.8503   -18.4185   -23.2625 C       5      r5    -0.0006
    140 C           -0.4953   -18.5549   -23.7874 C       5      r5    -0.0020
    141 C           -0.1375   -17.7993   -24.9094 C       7      r7     0.0237
    142 C            0.1987   -20.3633   -21.1533 C       5      r5     0.0008
    143 C            0.7576   -18.9100   -23.2457 C       5      r5     0.0032
    144 C            1.0367   -19.7251   -22.1489 C       5      r5    -0.0005
    145 C            1.1391   -16.0674   -21.2892 C       7      r7    -0.0033
    146 C            1.2324   -17.5773   -24.9898 C       7      r7     0.0511
    147 C            1.8381   -18.3079   -23.9743 C       5      r5     0.0003
    148 C            2.3514   -20.1078   -22.1030 C       7      r7     0.0007
    149 C            3.2367   -17.1601   -21.1027 C       7      r7    -0.0021
    150 C            3.2640   -18.5537   -23.7362 C       7      r7     0.0058
    151 C            3.4514   -19.7981   -23.0037 C       7      r7    -0.0030
    152 C            4.1441   -16.3191   -23.8601 C       6      r6    -0.0032
    153 C            4.4066   -17.7187   -24.1035 C       7      r7     0.0096
    154 C            4.6110   -17.5462   -20.7929 C       7      r7    -0.0041
    155 C            5.8833   -16.7853   -21.0641 C       7      r7    -0.0058
    156 C            5.8021   -18.2221   -24.3033 C       7      r7     0.0097
    157 C            6.1904   -19.6602   -24.2161 C       7      r7     0.0046
    158 C            6.7824   -17.1972   -24.7174 C       5      r5     0.0365
    159 C            7.3925   -17.0546   -21.1936 C       7      r7    -0.0012
    160 C            7.5435   -20.2399   -24.1822 C       5      r5     0.0036
    161 C            7.9045   -17.9915   -21.9836 C       7      r7    -0.0033
    162 C            8.2834   -17.2136   -24.9207 C       5      r5     0.0206
    163 C            8.4835   -15.9952   -20.8741 C       7      r7     0.0009
    164 C            8.7577   -15.9521   -24.4608 C       5      r5     0.0028
    165 C            8.8393   -18.7520   -22.6944 C       7      r7    -0.0006
    166 C            8.8371   -19.8765   -23.6589 C       5      r5    -0.0008
    167 C            9.8757   -16.0211   -21.1819 C       7      r7    -0.0019
    168 C           10.2554   -18.2351   -22.4200 C       7      r7     0.0287
    169 C           10.2603   -20.1573   -23.8108 C       5      r5     0.0053
    170 C           10.7127   -17.1421   -21.6331 C       7      r7     0.0140
    171 C           11.0657   -19.0865   -23.2310 C       5      r5     0.0187
    172 O           11.6153   -19.9778   -20.5733 O       7      r7    -0.5117
    173 C           12.1500   -17.0515   -21.5318 C       7      r7     0.0229
    174 C           12.5071   -18.9009   -23.1549 C       6      r6     0.0235
    175 C           13.0951   -16.2974   -24.9429 C       0      r0    -0.0029
    176 C           13.0561   -17.8897   -22.2992 C       5      r5     0.0187
    177 C           13.0665   -16.1098   -21.0198 C       7      r7    -0.0023
    178 C           13.2193   -19.6051   -24.2081 C       5      r5    -0.0034
    179 C           14.4174   -17.5377   -22.1272 C       5      r5    -0.0022
    180 C           14.5037   -16.2719   -21.4234 C       5      r5     0.0001
    181 C           14.5286   -19.4684   -24.8345 C       5      r5     0.0013
    182 C           15.5138   -18.5499   -21.8398 C       5      r5     0.0047
    183 C           15.7549   -19.3129   -20.6978 C       5      r5     0.0009
    184 C           15.8425   -18.9457   -24.3979 C       7      r7    -0.0011
    185 C           16.2131   -19.1282   -22.9423 C       7      r7    -0.0020
    186 C           16.7570   -20.2838   -21.0143 C       5      r5    -0.0048
    187 C           16.8881   -20.2701   -22.4446 C       7      r7     0.0000
    188 C           18.2864   -17.6744   -20.7966 C       5      r5     0.0213
    189 C           18.4579   -16.7107   -23.0058 C       7      r7     0.0058
    190 C           18.6679   -17.8235   -22.1788 C       5      r5     0.0027
    191 C           18.9748   -16.7693   -24.3652 C       7      r7    -0.0001
    192 C           19.5999   -19.5979   -21.0330 C       5      r5     0.0088
    193 C           19.5573   -18.9420   -22.3559 C       5      r5     0.0065
    194 C           19.8260   -17.8629   -24.5833 C       5      r5     0.0025
    195 C           20.2044   -18.9977   -23.6317 C       5      r5     0.0026
    196 C           21.3077   -19.6056   -24.2638 C       7      r7     0.0011
    197 C           22.4866   -20.2373   -23.5118 C       7      r7    -0.0005
    198 C           23.6937   -19.3273   -23.6055 C       7      r7     0.0007
    199 C           23.9233   -18.5177   -21.1066 C       7      r7     0.0084
    200 C           24.1654   -18.4236   -22.5476 C       7      r7     0.0031
    201 C           24.3765   -18.9583   -24.7804 C       7      r7    -0.0017
    202 C          -24.8046   -14.2999   -24.4728 C       7      r7    -0.0000
    203 C          -24.7086   -15.8189   -21.2642 C       7      r7    -0.0015
    204 C          -24.3433   -11.7915   -23.4081 C       7      r7    -0.0002
    205 C          -24.1186   -11.9736   -24.9206 C       7      r7     0.0010
    206 C          -23.7313   -13.4900    25.0359 C       7      r7    -0.0000
    207 C          -23.6120   -14.8683   -21.2302 C       7      r7    -0.0011
    208 C          -22.5435   -15.2240   -22.1953 C       7      r7    -0.0015
    209 C          -21.9746   -12.0445   -22.4556 C       7      r7     0.0006
    210 C          -21.3485   -14.4598   -22.0629 C       7      r7    -0.0000
    211 C          -21.5339   -13.0894   -21.4849 C       7      r7     0.0001
    212 C          -20.9768   -11.6779   -23.4533 C       7      r7     0.0007
    213 C          -19.9785   -14.5495   -22.4391 C       7      r7     0.0008
    214 C          -19.6402   -12.2801   -23.4755 C       7      r7     0.0002
    215 C          -19.1746   -13.4875   -22.8961 C       7      r7     0.0003
    216 C          -18.9860   -15.4827   -22.0305 C       5      r5    -0.0001
    217 C          -17.6817   -15.1200   -22.2384 C       5      r5     0.0003
    218 C          -17.7915   -13.7209   -22.6984 C       5      r5     0.0002
    219 C          -17.3398   -11.5218   -24.0648 C       6      r6     0.0002
    220 C          -16.9509   -12.9805   -23.5329 C       6      r6     0.0000
    221 C          -15.7762   -13.6210   -24.0701 C       5      r5    -0.0005
    222 C          -15.3160   -15.8544   -21.4028 C       7      r7     0.0006
    223 C          -15.3120   -15.8946   -24.6791 C       5      r5     0.0009
    224 C          -15.1639   -14.9243   -23.6454 C       5      r5     0.0005
    225 C          -14.5697   -14.9867   -22.3341 C       7      r7    -0.0000
    226 C          -13.8601   -13.8472   -21.7801 C       7      r7    -0.0003
    227 C          -13.1557   -11.7176   -23.0543 C       7      r7     0.0019
    228 C          -13.2163   -13.2227   -22.9095 C       7      r7    -0.0009
    229 C          -12.5814   -15.3267   -24.4028 C       7      r7    -0.0000
    230 C          -12.5791   -13.9217   -23.9730 C       5      r5    -0.0013
    231 C          -12.4869   -11.6220   -24.2781 C       7      r7    -0.0010
    232 C          -11.6003   -12.9702   -24.6841 C       5      r5    -0.0016
    233 C          -10.7667   -13.6484   -20.9261 C       7      r7     0.0007
    234 C          -10.5099   -12.3623   -21.5059 C       7      r7     0.0107
    235 C          -10.3894   -14.8332   -21.6870 C       7      r7    -0.0012
    236 C          -10.2454   -12.8612   -23.9174 C       7      r7    -0.0021
    237 C          -10.2523   -11.8653   -22.8640 C       7      r7    -0.0079
    238 C           -9.2204   -13.9118   -23.8891 C       7      r7    -0.0034
    239 C           -9.2372   -14.7421   -22.6594 C       7      r7    -0.0026
    240 C           -8.2328   -13.5683   -24.9827 C       0      r0    -0.0008
    241 C           -8.0292   -15.4917   -22.2410 C       6      r6    -0.0006
    242 C           -7.1168   -13.0906   -20.8858 C       6      r6    -0.0045
    243 C           -6.7077   -11.6298   -20.8569 C       7      r7    -0.0013
    244 C           -6.3103   -12.0654   -24.2992 C       5      r5     0.0041
    245 C           -5.6041   -13.0029   -23.4233 C       0      r0     0.0318
    246 C           -5.8677   -15.6818   -23.6307 C       5      r5     0.0014
    247 C           -5.4826   -11.3935   -21.6039 C       7      r7    -0.0043
    248 C           -5.3281   -14.3542   -23.9575 C       5      r5    -0.0535
    249 C           -4.7772   -12.6452   -22.2333 C       0      r0    -0.0015
    250 C           -4.3886   -14.5280   -24.9473 C       7      r7     0.2581
    251 C           -3.5815   -13.2871   -21.9705 C       0      r0     0.0127
    252 C           -2.3859   -13.9017   -21.7519 C       6      r6     0.0017
    253 C           -2.2219   -14.8742   -20.5515 C       6      r6    -0.0004
    254 C           -2.1060   -11.6048   -24.1975 C       5      r5     0.0281
    255 C           -1.3235   -13.7491   -22.7790 C       6      r6     0.0071
    256 C           -1.3933   -12.7660   -23.8107 C       5      r5     0.0213
    257 C           -1.0799   -15.7470   -20.5314 C       5      r5    -0.0003
    258 C           -0.6435   -13.0335   -24.9433 C       5      r5     0.0189
    259 C           -0.2108   -14.5992   -22.7442 C       7      r7    -0.0033
    260 C           -0.1106   -15.5411   -21.6427 C       7      r7    -0.0001
    261 C            0.6585   -14.8009   -23.9155 C       7      r7    -0.0014
    262 C            0.6897   -12.3523   -20.5127 C       6      r6    -0.0008
    263 C            1.6415   -11.9358   -21.5641 C       7      r7     0.0018
    264 C            1.8849   -15.5613   -24.1394 C       7      r7    -0.0074
    265 C            2.6742   -15.8285   -21.6339 C       7      r7    -0.0046
    266 C            3.0002   -12.4100   -24.4579 C       7      r7    -0.0045
    267 C            2.8843   -15.7861   -23.2081 C       7      r7    -0.0038
    268 C            3.0864   -14.8516   -20.4208 C       7      r7    -0.0035
    269 C            3.0665   -11.9879   -21.8963 C       7      r7     0.0017
    270 C            3.6738   -12.2916   -23.1682 C       7      r7    -0.0013
    271 C            4.3325   -11.6311   -21.1602 C       5      r5     0.0112
    272 C            5.0025   -15.3099   -24.4348 C       6      r6     0.0038
    273 C            5.1483   -12.0625   -23.2470 C       5      r5     0.0040
    274 C            5.5608   -11.6859   -21.9349 C       5      r5     0.0045
    275 C            5.6364   -15.5029   -20.6238 C       7      r7    -0.0045
    276 C            5.9457   -11.7221   -24.4197 C       6      r6     0.0054
    277 C            6.3992   -15.8042   -24.5696 C       5      r5     0.0191
    278 C            7.3510   -12.2604   -24.4613 C       6      r6    -0.0017
    279 C            7.4936   -13.6282   -24.3073 C       0      r0     0.0048
    280 C            7.5945   -14.9819   -24.1908 C       5      r5    -0.0009
    281 C            9.2523   -12.8185   -21.4509 C       7      r7    -0.0038
    282 C            9.7654   -11.4934   -21.6334 C       6      r6    -0.0004
    283 C            9.7431   -13.9287   -22.3048 C       7      r7    -0.0047
    284 C           10.1949   -15.8595   -24.5758 C       5      r5     0.0018
    285 C           10.2685   -12.1735   -23.9402 C       6      r6    -0.0023
    286 C           10.5084   -14.6928   -21.3252 C       7      r7    -0.0014
    287 C           10.3930   -13.5909   -23.5740 C       6      r6    -0.0021
    288 C           10.8867   -14.5630   -24.5583 C       0      r0     0.0000
    289 C           13.8365   -11.9239   -20.5228 C       6      r6     0.0005
    290 C           13.9607   -15.2426   -24.5199 C       0      r0    -0.0030
    291 C           14.5472   -13.2993   -20.4840 C       6      r6    -0.0008
    292 C           15.0460   -11.4851   -22.5248 C       6      r6     0.0015
    293 C           15.1681   -13.7744   -21.6665 C       6      r6    -0.0015
    294 C           15.0839   -12.9374   -22.8758 C       6      r6    -0.0011
    295 C           15.5291   -15.2801   -21.5134 C       0      r0    -0.0025
    296 C           15.8689   -13.0692   -24.1145 C       7      r7    -0.0012
    297 C           16.9107   -15.6846   -21.2552 C       6      r6    -0.0021
    298 C           17.2546   -12.6368   -23.9028 C       7      r7    -0.0012
    299 C           17.5051   -11.3949   -23.1733 C       6      r6    -0.0010
    300 C           17.7544   -15.5474   -22.4680 C       7      r7     0.0018
    301 C           18.4595   -12.2135   -20.5855 C       7      r7    -0.0036
    302 C           18.3749   -14.2255   -22.6191 C       7      r7     0.0028
    303 C           18.2293   -13.7580   -24.0086 C       7      r7    -0.0007
    304 C           18.7266   -13.5417   -21.3617 C       0      r0     0.0162
    305 C           20.6231   -12.1035   -23.8970 C       7      r7    -0.0002
    306 C           21.5701   -13.2050   -23.7469 C       7      r7     0.0007
    307 C           21.7890   -14.2192   -24.7861 C       7      r7     0.0012
    308 C           21.7318   -11.6688   -21.0670 C       7      r7     0.0014
    309 C           22.5082   -13.4460   -22.6447 C       7      r7     0.0082
    310 C           22.8971   -12.4284   -21.6430 C       7      r7     0.0026
    311 C           22.8993   -15.0390   -24.3027 C       5      r5     0.0041
    312 C           23.4980   -14.4069   -23.1405 C       5      r5     0.0060
    313 C           24.2921   -12.0258   -21.5659 C       7      r7    -0.0007
    314 C           24.7838   -13.7832   -23.3798 C       6      r6    -0.0019
    315 C           25.1084   -12.5206   -22.7377 C       7      r7    -0.0009
    316 C          -24.6623   -10.0511   -21.0862 C       7      r7    -0.0004
    317 C          -24.5885    -7.0099   -24.3364 C       5      r5     0.0008
    318 C          -24.2380    -8.3001   -24.9536 C       5      r5     0.0012
    319 C          -23.9656    -6.9506   -23.0502 C       5      r5    -0.0001
    320 C          -23.5992   -10.0306   -21.9723 C       7      r7     0.0005
    321 C          -23.2852   -11.3611   -22.4887 C       7      r7    -0.0003
    322 C          -23.1433    -8.8298   -24.3592 C       5      r5     0.0004
    323 C          -22.7372    -7.9461   -23.0566 C       5      r5    -0.0001
    324 C          -22.7518    -8.8905   -22.0329 C       7      r7     0.0002
    325 C          -22.3794   -10.0286   -24.6999 C       6      r6     0.0011
    326 C          -21.6554    -8.8525   -21.2731 C       7      r7     0.0004
    327 C          -21.3581    -7.1733   -23.4085 C       6      r6     0.0001
    328 C          -21.0524   -10.4261   -24.1601 C       5      r5     0.0002
    329 C          -20.3539    -8.6027   -21.9484 C       6      r6     0.0004
    330 C          -20.1165    -7.9657   -23.2419 C       6      r6     0.0003
    331 C          -19.6163   -10.0326   -24.3357 C       5      r5     0.0001
    332 C          -19.3247    -8.8396   -20.9376 C       6      r6     0.0004
    333 C          -19.2675    -8.6493   -24.2334 C       0      r0     0.0001
    334 C          -18.8621   -11.2631   -24.0944 C       5      r5     0.0002
    335 C          -18.1078    -8.0758   -24.9728 C       0      r0     0.0001
    336 C          -18.1130    -9.6789   -21.0850 C       0      r0    -0.0006
    337 C          -17.3556    -6.9534   -22.1470 C       5      r5    -0.0009
    338 C          -17.1291    -9.5133   -22.2544 C       0      r0    -0.0003
    339 C          -16.4992    -8.2009   -22.1685 C       0      r0    -0.0023
    340 C          -16.5862   -10.5105   -23.1194 C       0      r0    -0.0006
    341 C          -15.7326    -8.5401   -24.9823 C       0      r0    -0.0008
    342 C          -15.1329    -7.8289   -22.6254 C       7      r7     0.0013
    343 C          -15.0325    -7.5007   -24.0616 C       7      r7     0.0013
    344 C          -15.1624   -10.5152   -23.4945 C       7      r7    -0.0014
    345 C          -14.8622    -9.6908   -24.7188 C       7      r7     0.0002
    346 C          -14.5369    -7.3208   -21.3804 C       7      r7     0.0068
    347 C          -14.4957   -10.7713   -20.9679 C       7      r7     0.0046
    348 C          -14.1755   -10.8012   -22.4289 C       7      r7     0.0036
    349 C          -10.7853   -11.3563   -20.6190 C       5      r5    -0.0702
    350 C          -10.2349   -10.0854   -20.6697 C       6      r6     0.2705
    351 C           -9.6649   -10.5288   -22.8906 C       5      r5     0.0016
    352 C           -9.4175    -9.7320   -21.7437 C       5      r5    -0.0527
    353 C           -9.4505    -9.6121   -23.9657 C       7      r7     0.0025
    354 C           -8.9174    -8.4411   -22.0122 C       5      r5     0.0536
    355 C           -8.9498    -8.3810   -23.3833 C       7      r7    -0.0106
    356 C           -8.2671    -7.2145   -23.9251 C       7      r7    -0.0030
    357 C           -7.7477    -7.7049   -21.6883 C       5      r5     0.0016
    358 C           -6.6832    -8.3482   -20.9124 C       7      r7     0.0247
    359 C           -5.6627   -10.9078   -24.8903 C       5      r5     0.0078
    360 C           -5.4169    -8.7400   -21.5713 C       7      r7    -0.0096
    361 C           -4.9740   -10.1156   -21.9428 C       7      r7    -0.0008
    362 C           -4.2160   -10.5642   -24.8881 C       6      r6     0.0262
    363 C           -4.1750    -8.0490   -21.6644 C       5      r5     0.0130
    364 C           -3.8175    -7.0809   -20.5844 C       7      r7    -0.0461
    365 C           -3.6961   -10.0969   -22.6347 C       5      r5    -0.0083
    366 C           -3.3599   -11.0242   -23.7690 C       6      r6     0.0168
    367 C           -3.2391    -8.7413   -22.5856 C       5      r5    -0.0054
    368 C           -2.4044    -6.9262   -20.6278 C       7      r7     0.0081
    369 C           -1.8067    -8.3969   -22.6978 C       6      r6    -0.0027
    370 C           -1.5737    -7.9782   -21.3205 C       7      r7    -0.0021
    371 C           -0.7886    -9.3636   -23.1649 C       5      r5    -0.0055
    372 C           -0.7506   -10.2952   -20.8169 C       6      r6    -0.0019
    373 C           -0.3724   -10.4076   -22.2276 C       5      r5    -0.0010
    374 C            0.3482    -9.4840   -24.1192 C       5      r5    -0.0008
    375 C            0.8203   -11.1906   -22.5743 C       7      r7     0.0004
    376 C            1.1554   -10.6437   -23.8641 C       7      r7     0.0030
    377 C            2.0943   -11.3132   -24.7978 C       7      r7    -0.0029
    378 C            5.0010    -9.4282   -24.7917 C       7      r7    -0.0285
    379 C            6.0172    -8.5235   -24.1685 C       7      r7     0.2431
    380 O            6.2070    -8.3047   -22.6669 O       0      r0    -0.4872
    381 C            6.8181   -11.0328   -21.5127 C       5      r5     0.0350
    382 C            7.5916    -8.6710   -22.2047 C       6      r6     0.2442
    383 C            7.7736    -9.9927   -21.7444 C       5      r5    -0.0426
    384 C            8.5892    -7.6692   -22.0176 C       6      r6    -0.0545
    385 C            9.0814   -10.2409   -20.9664 C       5      r5     0.0005
    386 C            9.9711    -7.8363   -21.5487 C       7      r7     0.0090
    387 C            9.9544    -8.9646   -20.6460 C       7      r7    -0.0047
    388 C           10.4850   -11.2527   -22.8110 C       6      r6    -0.0015
    389 C           10.6350    -8.6781   -23.8633 C       0      r0    -0.0032
    390 C           11.1556    -9.9091   -23.1310 C       0      r0    -0.0012
    391 C           11.2329    -7.0741   -22.1331 C       7      r7    -0.0027
    392 C           11.4753    -7.5448   -23.6116 C       7      r7    -0.0001
    393 C           12.2800    -9.7195   -22.4529 C       0      r0    -0.0005
    394 C           12.4611    -7.2909   -21.2469 C       7      r7    -0.0013
    395 C           12.6220    -7.3168   -24.4642 C       7      r7    -0.0008
    396 C           13.4336    -9.6277   -21.7548 C       0      r0     0.0011
    397 C           13.6823    -8.1334   -21.4902 C       0      r0    -0.0007
    398 C           14.0762   -10.9842   -21.5282 C       6      r6     0.0009
    399 C           14.9406    -7.5420   -21.0526 C       7      r7     0.0009
    400 C           16.3267   -10.7710   -22.5265 C       6      r6     0.0003
    401 C           16.6643   -10.5088   -21.1227 C       7      r7    -0.0007
    402 C           16.9561    -9.2404   -20.4711 C       7      r7    -0.0006
    403 C           16.9632    -8.4687   -24.7096 C       7      r7     0.0003
    404 C           17.1382    -7.1047   -24.0540 C       6      r6    -0.0000
    405 C           18.8147   -10.7595   -22.9687 C       7      r7    -0.0014
    406 C           18.9468    -9.4381   -23.2845 C       7      r7    -0.0005
    407 C           19.2262    -9.1910   -24.5817 C       7      r7     0.0009
    408 C           19.3650    -7.2441   -22.5400 C       5      r5     0.0010
    409 C           19.7284    -8.6581   -22.3906 C       6      r6    -0.0002
    410 C           20.0854   -11.4594   -22.7263 C       7      r7     0.0005
    411 C           20.8965    -9.2378   -21.7796 C       6      r6    -0.0009
    412 C           21.0756   -10.6807   -21.9185 C       7      r7    -0.0023
    413 C           21.8309    -8.1897   -21.2597 C       7      r7    -0.0003
    414 C           23.2395    -8.2057   -21.0632 C       7      r7    -0.0003
    415 C           24.5267    -7.9482   -20.9024 C       7      r7     0.0005
    416 C           24.8083   -10.9790   -20.7192 C       7      r7    -0.0011
    417 C          -24.8569    -2.5282   -20.7960 C       7      r7    -0.0006
    418 C          -24.7684    -5.5781   -24.8291 C       6      r6     0.0003
    419 C          -24.7227    -4.4350   -23.8922 C       6      r6    -0.0001
    420 C          -24.7567    -4.6336   -22.4663 C       6      r6     0.0004
    421 C          -24.7363    -2.9624   -24.5101 C       6      r6     0.0003
    422 C          -24.5354    -6.0756   -22.0353 C       6      r6     0.0002
    423 C          -23.2424    -2.3360   -24.5171 C       6      r6     0.0003
    424 C          -21.2638    -3.3589   -20.7712 C       5      r5     0.0004
    425 C          -21.2729    -6.2349   -24.3639 C       0      r0     0.0003
    426 C          -21.0856    -3.0280   -22.1683 C       5      r5     0.0004
    427 C          -19.9329    -3.0846   -24.8104 C       6      r6     0.0001
    428 C          -19.8055    -3.6082   -22.5071 C       5      r5     0.0005
    429 C          -19.1470    -4.0693   -21.3816 C       5      r5     0.0008
    430 C          -19.0833    -3.4979   -23.7160 C       6      r6     0.0007
    431 C          -17.9522    -4.7394   -21.6696 C       5      r5    -0.0003
    432 C          -17.7908    -4.0386   -23.9568 C       6      r6     0.0003
    433 C          -17.6097    -6.0083   -21.0468 C       5      r5    -0.0011
    434 C          -17.6876    -6.6622   -24.7649 C       6      r6    -0.0002
    435 C          -17.5404    -4.8739   -22.9875 C       5      r5    -0.0011
    436 C          -17.5499    -6.2224   -23.3946 C       5      r5    -0.0002
    437 C          -14.6586    -6.2551   -24.7777 C       7      r7    -0.0000
    438 C          -14.1228    -5.0757   -24.1419 C       7      r7     0.0003
    439 C          -13.9508    -6.0247   -21.6077 C       7      r7     0.0038
    440 C          -13.9413    -5.1398   -22.7377 C       7      r7     0.0002
    441 C          -13.3331    -3.9179   -24.6332 C       7      r7    -0.0002
    442 C          -13.1507    -4.0088   -22.4759 C       5      r5    -0.0013
    443 C          -13.1050    -5.2856   -20.7269 C       7      r7     0.0058
    444 C          -12.6875    -3.2663   -23.5180 C       5      r5     0.0005
    445 C          -12.4054    -4.1591   -21.2965 C       7      r7     0.0032
    446 C          -11.5367    -2.4342   -23.4354 C       6      r6     0.0002
    447 C          -11.4464    -3.0656   -21.0114 C       7      r7    -0.0002
    448 C          -10.8755    -2.2915   -22.0826 C       6      r6     0.0005
    449 C           -8.4440    -2.5634   -21.7883 C       0      r0    -0.0029
    450 C           -8.4086    -3.9694   -22.2089 C       0      r0    -0.0006
    451 C           -8.1063    -5.2259   -22.4580 C       0      r0     0.0079
    452 C           -7.7616    -6.5775   -22.6951 C       5      r5    -0.0010
    453 C           -5.1178    -2.5122   -20.4767 C       6      r6     0.0149
    454 C           -4.9878    -3.6584   -23.9725 C       0      r0    -0.0019
    455 C           -4.5813    -4.9297   -20.3723 C       7      r7    -0.0427
    456 C           -4.3878    -4.1670   -22.8620 C       0      r0    -0.0070
    457 C           -3.7845    -4.6536   -21.7099 C       7      r7     0.0098
    458 C           -2.3300    -4.7680   -21.6580 C       7      r7     0.0080
    459 C           -2.2966    -3.1515   -24.9432 C       6      r6    -0.0006
    460 C           -1.7244    -5.6234   -20.6172 C       7      r7     0.0246
    461 C           -1.7655    -4.1732   -24.0710 C       6      r6    -0.0021
    462 C           -1.5211    -4.0120   -22.5457 C       6      r6    -0.0028
    463 C           -1.5188    -5.3197   -24.9180 C       7      r7    -0.0043
    464 C           -0.3136    -3.5659   -21.8368 C       6      r6     0.0016
    465 C           -0.3121    -5.6518   -20.3823 C       7      r7     0.0017
    466 C            0.3688    -2.3499   -22.2639 C       6      r6    -0.0047
    467 C            0.3872    -4.4906   -20.9293 C       6      r6     0.0030
    468 C            1.8022    -2.6191   -22.4315 C       6      r6    -0.0047
    469 C            1.7626    -4.2927   -20.6161 C       6      r6    -0.0020
    470 C            2.5907    -3.5615   -21.5776 C       6      r6     0.0050
    471 C            3.4673    -2.7172   -24.3554 C       7      r7     0.0012
    472 C            3.8537    -3.1025   -21.0182 C       6      r6     0.0006
    473 C            5.2305    -3.1417   -21.5288 C       6      r6     0.0022
    474 C            5.7578    -3.2740   -23.9451 C       7      r7    -0.0009
    475 C            5.9323    -3.8280   -22.6295 C       6      r6     0.0149
    476 C            7.3537    -4.0192   -22.3123 C       6      r6    -0.0011
    477 C            7.7374    -5.2835   -21.6899 C       0      r0     0.0072
    478 C            8.0589    -2.7386   -22.0231 C       7      r7    -0.0029
    479 C            8.0430    -6.3863   -22.5342 C       0      r0     0.0523
    480 C            8.1863    -6.1481   -23.9575 C       0      r0    -0.0033
    481 C            9.3647    -2.4547   -22.5704 C       7      r7    -0.0009
    482 C            9.4252    -5.3220   -24.1814 C       0      r0    -0.0029
    483 C           10.2076    -3.3392   -23.3376 C       5      r5    -0.0001
    484 C           10.1557    -4.7404   -22.9884 C       0      r0    -0.0023
    485 C           11.1606    -2.4591   -23.9884 C       7      r7     0.0006
    486 C           10.9845    -4.8716   -20.4651 C       5      r5    -0.0002
    487 C           11.1285    -5.4133   -22.1095 C       7      r7    -0.0008
    488 C           11.8271    -3.5463   -20.4724 C       5      r5     0.0002
    489 C           12.4677    -4.7139   -22.3964 C       7      r7    -0.0007
    490 C           12.7234    -3.5423   -21.5527 C       7      r7     0.0009
    491 C           13.6686    -5.2346   -23.1884 C       7      r7     0.0005
    492 C           13.6532    -6.2942   -24.2124 C       7      r7     0.0001
    493 C           14.6888    -2.5904   -22.6853 C       7      r7     0.0001
    494 C           14.8969    -5.1431   -22.4148 C       7      r7     0.0007
    495 C           14.9101    -6.5812   -24.8862 C       5      r5     0.0014
    496 C           15.1855    -6.0970   -21.2262 C       7      r7     0.0000
    497 C           15.2834    -3.8019   -22.0335 C       7      r7     0.0008
    498 C           15.7679    -3.8910   -20.6746 C       5      r5     0.0002
    499 C           16.3486    -6.1385   -24.7798 C       6      r6     0.0001
    500 C           17.8107    -2.9461   -24.3210 C       7      r7     0.0005
    501 C           17.9936    -2.5179   -22.9026 C       7      r7    -0.0005
    502 C           18.0459    -4.3600   -24.4502 C       7      r7     0.0006
    503 C           18.2832    -6.6110   -23.2764 C       5      r5     0.0000
    504 C           18.6655    -5.1695   -23.3882 C       7      r7    -0.0002
    505 C           19.3829    -2.3491   -22.5516 C       7      r7     0.0005
    506 C           19.7745    -4.9876   -22.4732 C       7      r7     0.0003
    507 C           20.2922    -6.2769   -22.0180 C       5      r5     0.0003
    508 C           20.3094    -3.6097   -22.6937 C       7      r7     0.0010
    509 C           21.3230    -6.7786   -21.1155 C       7      r7     0.0009
    510 C           21.4362    -3.4292   -23.5345 C       0      r0     0.0010
    511 C           22.4445    -3.0454   -24.3958 C       6      r6     0.0006
    512 C           23.4475    -2.1467   -23.6803 C       6      r6     0.0008
    513 C           23.6314    -5.7428   -20.7458 C       7      r7     0.0005
    514 C           23.9808    -4.3464   -20.6385 C       7      r7     0.0002
    515 C           24.7828    -6.5608   -21.1519 C       7      r7     0.0004
    516 C           25.1331    -3.7715   -21.3875 C       7      r7    -0.0000
    517 C          -25.0790    -0.6466   -23.3462 C       7      r7    -0.0002
    518 C          -23.7209    -0.5865   -22.8245 C       7      r7    -0.0006
    519 C          -23.2927     1.7147   -23.4579 C       7      r7    -0.0002
    520 C          -22.9601     0.6281   -22.5866 C       7      r7     0.0005
    521 C          -22.8350    -1.6005   -23.3697 C       6      r6    -0.0001
    522 C          -21.6201     0.6852   -21.8395 C       5      r5    -0.0003
    523 C          -21.4361    -1.7086   -22.7399 C       6      r6     0.0002
    524 C          -21.1905     2.0333   -22.5429 C       5      r5     0.0002
    525 C          -20.7364    -0.5601   -22.2213 C       6      r6    -0.0003
    526 C          -19.2494    -0.5407   -22.2236 C       5      r5     0.0004
    527 C          -19.0492     0.0683   -24.7145 C       6      r6     0.0002
    528 C          -18.4614    -0.3032   -23.4063 C       5      r5     0.0003
    529 C          -18.2444    -0.3305   -21.1479 C       5      r5     0.0002
    530 C          -17.0230    -0.3087   -23.0834 C       5      r5     0.0002
    531 C          -16.8484    -0.3799   -21.5403 C       5      r5     0.0000
    532 C          -15.9973    -0.0479   -23.9669 C       0      r0     0.0002
    533 C          -15.7864    -0.2279   -20.5961 C       0      r0     0.0004
    534 C          -15.1413     0.1576   -24.8875 C       0      r0    -0.0002
    535 C          -12.2891     1.5719   -24.2221 C       7      r7     0.0001
    536 C          -11.0617    -2.0134   -24.6862 C       6      r6     0.0001
    537 C          -11.0523     0.8137   -23.9079 C       7      r7    -0.0004
    538 C          -10.4386     0.8181   -22.5495 C       7      r7     0.0034
    539 C          -10.1075     2.1693   -22.1907 C       7      r7     0.0022
    540 C           -9.5519    -1.6001   -22.0371 C       0      r0    -0.0027
    541 C           -9.6354    -1.6052   -24.7835 C       6      r6    -0.0004
    542 C           -9.4136    -0.1378   -22.0857 C       5      r5    -0.0012
    543 C           -9.1209    -0.2848    25.0125 C       6      r6     0.0009
    544 C           -8.7704     2.0708   -21.7763 C       5      r5     0.0005
    545 C           -8.3279     0.7579   -21.5896 C       5      r5    -0.0014
    546 C           -7.6679    -0.0552   -24.8696 C       6      r6     0.0020
    547 C           -7.4814    -2.2997   -20.7207 C       6      r6    -0.0061
    548 C           -7.1587     1.2649   -24.7184 C       6      r6    -0.0019
    549 C           -6.8761     0.6813   -21.5899 C       5      r5    -0.0040
    550 C           -6.7857    -1.2008   -24.7799 C       6      r6     0.0006
    551 C           -6.1841    -1.6379   -20.8877 C       6      r6    -0.0046
    552 C           -6.1110     1.8879   -21.4693 C       7      r7    -0.0006
    553 C           -5.9468    -0.3123   -21.2841 C       5      r5    -0.0005
    554 C           -5.7059     1.3373   -24.5681 C       6      r6     0.0157
    555 C           -5.4106    -1.0689   -24.3561 C       6      r6    -0.0030
    556 C           -4.8280     0.2081   -24.2874 C       6      r6     0.0097
    557 C           -4.7578     1.6807   -21.2622 C       7      r7    -0.0090
    558 C           -4.5989     0.3077   -21.2694 C       5      r5     0.0021
    559 C           -4.5240    -2.2666   -24.2684 C       6      r6    -0.0007
    560 C           -3.8416    -1.8857   -20.6046 C       5      r5    -0.0374
    561 C           -3.4968    -0.5439   -21.0952 C       5      r5    -0.0060
    562 C           -3.3473     0.3304   -24.2329 C       6      r6     0.0126
    563 C           -3.0979    -2.0463   -24.3293 C       6      r6     0.0017
    564 C           -2.7658     1.6602   -24.4722 C       5      r5     0.0202
    565 C           -2.6414    -0.7855   -23.6741 C       6      r6    -0.0066
    566 C           -2.0434    -0.4506   -21.2182 C       5      r5     0.0007
    567 C           -1.6325    -0.7589   -22.5627 C       0      r0    -0.0034
    568 C           -0.2743    -1.1747   -22.9222 C       6      r6    -0.0030
    569 C            0.1484    -0.8247   -24.2518 C       6      r6    -0.0009
    570 C            1.4472    -1.2754   -24.6109 C       6      r6    -0.0024
    571 C            2.2960    -2.1140   -23.7291 C       6      r6    -0.0029
    572 C            2.3206     1.6741   -24.8710 C       5      r5    -0.0008
    573 C            4.2161     0.3343   -24.7204 C       5      r5    -0.0002
    574 C            4.4972     1.5385   -24.0407 C       5      r5     0.0001
    575 C            4.7995    -2.1714   -24.2343 C       7      r7    -0.0011
    576 C            5.1451    -0.8178   -24.5173 C       7      r7    -0.0005
    577 C            5.9949    -2.1079   -20.9513 C       5      r5    -0.0016
    578 C            5.8753     1.6010   -23.5684 C       6      r6     0.0008
    579 C            6.5703    -0.5305   -24.8027 C       7      r7    -0.0004
    580 C            6.8639     0.8306   -24.3775 C       6      r6     0.0005
    581 C            7.3244    -1.7818   -21.2205 C       7      r7    -0.0009
    582 C            7.4161     2.1738   -21.5668 C       0      r0    -0.0002
    583 C            7.4855    -0.4037   -20.8455 C       7      r7    -0.0007
    584 C            8.5558     1.9074   -20.8288 C       6      r6    -0.0005
    585 C            8.6415     0.3986   -21.0566 C       7      r7     0.0005
    586 C            8.9481     2.2867   -24.8290 C       7      r7    -0.0003
    587 C            9.8667    -0.1311   -21.5864 C       7      r7    -0.0005
    588 C           10.0932    -1.2445   -22.4668 C       7      r7     0.0003
    589 C           10.0445     1.8977   -24.0008 C       7      r7     0.0000
    590 C           10.7057     0.6582   -24.4782 C       6      r6     0.0000
    591 C           11.0086     0.6451   -21.0807 C       6      r6     0.0002
    592 C           11.2283    -1.3071   -23.2587 C       7      r7     0.0003
    593 C           11.7868    -0.0354   -23.4895 C       7      r7    -0.0004
    594 C           12.1385     0.8657   -22.0251 C       7      r7     0.0007
    595 C           12.9692    -0.0623   -24.2358 C       7      r7    -0.0007
    596 C           13.2684    -1.1043   -21.0458 C       7      r7    -0.0009
    597 C           13.3945     0.3457   -21.3839 C       7      r7    -0.0001
    598 C           13.5193    -0.9748    24.9272 C       7      r7    -0.0010
    599 C           13.4625    -2.2518   -21.9567 C       7      r7     0.0002
    600 C           13.4833     1.2504   -24.2435 C       5      r5     0.0008
    601 C           14.5091     0.9332   -20.7060 C       7      r7     0.0016
    602 C           14.4377     1.7551    24.9001 C       5      r5     0.0006
    603 C           15.6762    -1.6165   -23.2670 C       6      r6    -0.0007
    604 C           15.9696    -1.4205   -24.6640 C       6      r6    -0.0000
    605 C           16.9269    -1.6128   -22.4453 C       6      r6    -0.0007
    606 C           16.8990    -0.7896   -21.1924 C       0      r0    -0.0013
    607 C           17.1973     2.1645   -24.7793 C       7      r7     0.0024
    608 C           17.4574     0.5507   -21.3002 C       0      r0     0.0044
    609 C           17.6772     2.1121   -23.3824 C       7      r7     0.0138
    610 C           17.9243     0.8544   -22.6542 C       6      r6    -0.0015
    611 C           18.7847    -0.0436   -23.4963 C       6      r6    -0.0009
    612 C           18.7591     0.1966   -24.9234 C       6      r6    -0.0004
    613 C           19.7772    -1.0191   -22.9275 C       6      r6    -0.0014
    614 C           20.3354     1.9181   -21.9931 C       5      r5    -0.0036
    615 C           20.5528     1.1513   -20.8478 C       5      r5    -0.0009
    616 C           20.8511    -1.2411   -25.0294 C       6      r6     0.0008
    617 C           21.1203    -1.1009   -23.5834 C       6      r6    -0.0006
    618 C           21.3034     1.6423   -22.9752 C       5      r5    -0.0020
    619 C           21.5003     1.9018   -24.4031 C       6      r6    -0.0028
    620 C           21.8513     0.5587   -20.9979 C       5      r5    -0.0031
    621 C           22.3476     0.9764   -22.2348 C       5      r5    -0.0008
    622 C           22.5781    -1.1148   -23.1935 C       6      r6    -0.0003
    623 C           23.2226     0.1019   -22.7493 C       6      r6    -0.0003
    624 C           24.5179     0.5026   -23.0861 C       7      r7     0.0003
    625 C           24.7448     1.9362   -23.2116 C       7      r7     0.0011
    626 C           24.6533    -1.5198   -20.4780 C       7      r7    -0.0002
    627 C           24.8854    -1.9709   -23.7038 C       6      r6     0.0000
    628 C          -24.5226     2.5845   -23.4483 C       7      r7     0.0005
    629 C          -24.3350     4.0213   -23.1371 C       7      r7     0.0014
    630 C          -23.1064     4.7187   -23.5644 C       7      r7     0.0001
    631 C          -22.8504     6.0662   -23.0433 C       7      r7    -0.0003
    632 C          -22.2458     3.7916   -24.3496 C       6      r6     0.0003
    633 C          -22.0643     2.5358   -23.5762 C       5      r5    -0.0002
    634 C          -21.7327     6.6286   -22.2286 C       7      r7    -0.0018
    635 C          -20.9620     6.4304   -20.9440 C       6      r6    -0.0016
    636 C          -20.4878     3.0158   -21.7381 C       6      r6     0.0000
    637 C          -19.9587     5.3966   -20.8928 C       6      r6    -0.0009
    638 C          -19.4276     3.7998   -22.5051 C       6      r6     0.0008
    639 C          -19.3885     6.6884   -24.2651 C       5      r5     0.0005
    640 C          -19.1545     5.1593   -22.0803 C       6      r6     0.0006
    641 C          -18.6644     6.2751   -23.0296 C       6      r6     0.0011
    642 C          -18.4594     2.8358   -23.1304 C       6      r6     0.0004
    643 C          -18.4281     2.5634   -24.6026 C       6      r6     0.0001
    644 C          -17.2427     6.7563   -23.0939 C       6      r6    -0.0007
    645 C          -17.2254     2.6338   -22.3739 C       6      r6    -0.0002
    646 C          -17.2452     2.8711   -20.8805 C       6      r6     0.0004
    647 C          -16.1144     3.3735   -24.5514 C       7      r7     0.0002
    648 C          -16.1845     3.3009   -23.1123 C       6      r6    -0.0003
    649 C          -15.5286     4.7288   -21.1816 C       7      r7     0.0003
    650 C          -15.2322     4.1413   -22.4248 C       6      r6     0.0003
    651 C          -14.4694     5.5747   -20.7485 C       7      r7     0.0011
    652 C          -14.1138     4.6589   -23.1900 C       6      r6    -0.0001
    653 C          -13.7561     6.3804   -21.6756 C       7      r7     0.0006
    654 C          -13.7257     3.7113   -24.1153 C       7      r7     0.0003
    655 C          -13.2034     5.5667   -22.6993 C       6      r6     0.0010
    656 C          -12.5108     2.9958   -23.8922 C       7      r7     0.0002
    657 C          -11.8651     5.2007   -22.9183 C       5      r5     0.0014
    658 C          -11.6599     3.8579   -23.2050 C       7      r7    -0.0001
    659 C          -10.5268     5.7689   -22.9876 C       5      r5     0.0008
    660 C          -10.4311     3.4542   -22.6909 C       7      r7     0.0003
    661 C          -10.3662     6.6120   -24.1839 C       7      r7     0.0014
    662 C           -9.6804     4.6400   -22.5393 C       5      r5     0.0003
    663 C           -8.3372     4.5763   -22.0146 C       5      r5    -0.0002
    664 C           -7.9894     3.2294   -21.5916 C       5      r5    -0.0009
    665 C           -7.9761     2.4664   -25.0084 C       7      r7     0.0027
    666 C           -7.9234     6.2701   -24.2891 C       7      r7     0.0005
    667 C           -7.3445     3.7552   -24.7608 C       7      r7     0.0013
    668 C           -7.1177     5.3384   -22.2340 C       5      r5    -0.0004
    669 C           -6.8811     6.5485   -23.2270 C       7      r7     0.0005
    670 C           -6.6414     3.1537   -21.4644 C       7      r7    -0.0034
    671 C           -6.1135     4.4353   -21.8406 C       7      r7    -0.0020
    672 C           -5.8772     3.8363   -24.7312 C       7      r7     0.0023
    673 C           -5.2658     6.2172   -23.8012 C       7      r7     0.0003
    674 C           -5.0729     2.6402   -24.5358 C       6      r6     0.0204
    675 C           -5.0916     5.0686   -24.8113 C       7      r7     0.0007
    676 C           -4.6635     4.6084   -21.9705 C       7      r7    -0.0030
    677 C           -4.2585     5.7959   -22.7032 C       6      r6    -0.0005
    678 C           -3.6655     2.7770   -24.3834 C       5      r5     0.0051
    679 C           -3.5682     3.9006   -21.3085 C       7      r7    -0.0037
    680 C           -3.0120     6.3413   -22.4655 C       6      r6    -0.0017
    681 C           -2.2053     4.3954   -21.1165 C       7      r7     0.0014
    682 C           -2.0412     5.7649   -21.5290 C       7      r7    -0.0026
    683 C           -1.0620     6.7120   -21.0108 C       7      r7    -0.0012
    684 C            1.1160     5.7515   -24.5205 C       7      r7    -0.0010
    685 C            1.6094     4.3836   -24.4800 C       7      r7    -0.0006
    686 C            2.1040     6.7612   -24.2477 C       5      r5    -0.0007
    687 C            3.0289     4.0175   -24.2418 C       6      r6    -0.0010
    688 C            3.0560     3.9259   -20.5778 C       7      r7     0.0007
    689 C            3.5298     6.3909   -24.5394 C       6      r6    -0.0008
    690 C            3.2882     2.5585   -24.3278 C       5      r5    -0.0004
    691 C            3.8984     5.1554   -23.8455 C       6      r6    -0.0002
    692 C            4.1257     3.7559   -21.6241 C       6      r6    -0.0022
    693 C            4.2992     4.9947   -22.4304 C       6      r6    -0.0012
    694 C            4.7747     6.1718   -21.6196 C       7      r7    -0.0005
    695 C            5.1253     2.7602   -21.3409 C       6      r6    -0.0004
    696 C            6.1274     6.6091   -21.9490 C       7      r7     0.0013
    697 C            6.2616     2.4007   -22.2945 C       0      r0    -0.0005
    698 C            7.3714     6.0483   -21.3133 C       7      r7     0.0003
    699 C            8.4842     5.8745   -22.1860 C       7      r7     0.0016
    700 C            8.4336     6.4549   -23.4867 C       7      r7    -0.0010
    701 C            9.2950     6.1122   -24.5742 C       7      r7     0.0001
    702 C            9.5836     4.8405   -22.0023 C       6      r6    -0.0006
    703 C            9.9989     4.8751   -24.5003 C       7      r7    -0.0029
    704 C           10.1733     4.1967   -23.2004 C       7      r7    -0.0009
    705 C           10.2971     4.9525   -20.7289 C       6      r6    -0.0012
    706 C           10.6629     2.8223   -23.0725 C       7      r7    -0.0013
    707 C           11.2898     6.1609   -20.4717 C       6      r6    -0.0009
    708 C           12.0115     2.5031   -22.4120 C       7      r7    -0.0007
    709 C           12.3025     6.1159   -21.6600 C       6      r6     0.0006
    710 C           12.7322     3.6241   -21.5537 C       7      r7     0.0027
    711 C           12.7589     4.9172   -22.3077 C       6      r6     0.0106
    712 C           13.0076     2.4159   -23.5708 C       5      r5     0.0009
    713 C           13.4291     4.9526   -23.6164 C       7      r7     0.0121
    714 C           13.6280     3.6020   -24.1058 C       7      r7     0.0091
    715 C           13.6991     3.4720   -20.5233 C       7      r7     0.0091
    716 C           13.9602     6.1440   -24.2118 C       7      r7     0.0269
    717 C           14.4674     3.2040    24.8614 C       7      r7     0.0031
    718 O           16.2893     5.9288   -22.2058 O       5      r5    -0.4695
    719 C           17.3264     6.7303   -21.4180 C       5      r5     0.2271
    720 C           18.2732     6.1407   -20.6608 C       0      r0    -0.0378
    721 C           18.6521     3.1109   -23.0550 C       7      r7     0.0094
    722 C           18.9008     4.3871   -23.7199 C       7      r7     0.0215
    723 C           18.5865     5.0471   -24.9462 C       7      r7     0.0170
    724 C           19.5425     3.0382   -22.0212 C       5      r5     0.0042
    725 C           20.0169     4.9690   -23.0145 C       5      r5    -0.0005
    726 C           20.3331     4.1737   -21.8352 C       5      r5     0.0020
    727 C           20.4230     6.2330   -23.2964 C       6      r6     0.0007
    728 C           21.4907     4.5270   -20.9590 C       6      r6    -0.0038
    729 C           21.5412     6.1685   -21.0038 C       7      r7    -0.0027
    730 C           22.6455     2.8055   -24.4577 C       6      r6    -0.0030
    731 C           22.8921     4.1465   -21.1743 C       7      r7     0.0030
    732 C           23.5732     2.9293   -23.3312 C       6      r6    -0.0002
    733 C           23.7037     4.0040   -22.3729 C       7      r7    -0.0039
    734 C           25.1277     4.4752   -22.1837 C       7      r7    -0.0038
    735 C           25.1727     5.7363   -21.4058 C       7      r7     0.0072
    736 C          -25.1355     6.9579   -22.2282 C       7      r7    -0.0002
    737 C          -24.6192     9.4457   -20.6378 C       7      r7     0.0000
    738 C          -24.0785    10.8025   -24.2262 C       6      r6    -0.0008
    739 C          -24.0744     8.0712   -24.1427 C       7      r7    -0.0009
    740 C          -24.0288     7.0125   -23.1381 C       7      r7    -0.0015
    741 C          -23.6961    10.5775   -21.0381 C       7      r7    -0.0022
    742 C          -22.8846    10.8955   -23.3708 C       6      r6    -0.0009
    743 C          -22.7072    10.2215   -22.0682 C       7      r7     0.0002
    744 C          -22.8106     8.2129   -24.8701 C       7      r7    -0.0001
    745 C          -21.9891     9.0177   -21.7168 C       7      r7     0.0006
    746 C          -21.5269     8.0291   -22.6670 C       7      r7     0.0000
    747 C          -21.5581     8.0801   -24.1726 C       7      r7     0.0004
    748 C          -20.6114     7.1819   -24.7964 C       5      r5     0.0002
    749 C          -16.4622     6.9367   -24.3133 C       7      r7    -0.0007
    750 C          -14.9914     7.3139   -24.4080 C       7      r7    -0.0000
    751 C          -14.8894     8.6461   -21.0262 C       7      r7    -0.0010
    752 C          -14.9522    10.0977   -21.2154 C       6      r6     0.0001
    753 C          -14.3190     8.1013   -23.3886 C       5      r5    -0.0016
    754 C          -14.3125     7.6873   -21.9788 C       7      r7    -0.0006
    755 C          -14.0028    10.9040   -21.9445 C       5      r5     0.0004
    756 C          -12.9859     8.5686   -23.9140 C       5      r5     0.0006
    757 C          -12.7335     7.4035   -24.8321 C       7      r7     0.0015
    758 C          -12.7290    10.6667   -22.6816 C       5      r5    -0.0013
    759 C          -12.2769     9.7522   -23.6698 C       6      r6     0.0006
    760 C          -11.0624    10.3118   -24.6848 C       5      r5     0.0004
    761 C          -10.0595    10.8226   -23.6293 C       5      r5    -0.0005
    762 C           -9.0983     8.6790   -24.5017 C       7      r7    -0.0002
    763 C           -9.0539     7.1993   -24.4741 C       7      r7    -0.0003
    764 C           -9.2554     9.6666   -23.3688 C       5      r5    -0.0002
    765 C           -8.9267    10.4011   -20.9524 C       6      r6    -0.0006
    766 C           -8.4585     9.6275   -22.1247 C       6      r6    -0.0010
    767 C           -7.2366     8.9444   -22.0106 C       6      r6    -0.0001
    768 C           -6.6650     8.0744   -23.0437 C       5      r5    -0.0009
    769 C           -6.6671     9.1557   -20.6346 C       6      r6    -0.0012
    770 C           -5.5910    11.1770   -23.5920 C       6      r6     0.0023
    771 C           -5.6903     8.5539   -23.9380 C       5      r5    -0.0016
    772 C           -5.0741     9.9139   -24.1315 C       6      r6    -0.0002
    773 C           -4.7622     7.5112   -24.4128 C       5      r5    -0.0001
    774 C           -3.3796     7.9531   -24.3370 C       6      r6    -0.0005
    775 C           -2.5810     7.6380   -23.1848 C       6      r6    -0.0018
    776 C           -2.0000    10.0306   -24.8200 C       7      r7     0.0001
    777 C           -1.6036     8.5254   -22.7783 C       6      r6    -0.0003
    778 C           -1.4861     9.9323   -23.4915 C       6      r6    -0.0004
    779 C           -0.8369     7.9729   -21.6257 C       7      r7    -0.0000
    780 C           -0.8572    11.1663   -22.9605 C       6      r6    -0.0009
    781 C            0.2935     8.7962   -21.2535 C       7      r7     0.0011
    782 C            1.3763     8.0597   -24.3902 C       5      r5    -0.0003
    783 C            1.4145     9.2084   -22.0846 C       7      r7    -0.0011
    784 C            1.8364     9.1484   -23.4716 C       7      r7    -0.0012
    785 C            2.0984    10.1452   -21.2934 C       7      r7    -0.0027
    786 C            2.9820     9.7096   -24.1843 C       7      r7    -0.0016
    787 C            3.5497    10.9522   -23.7592 C       7      r7    -0.0036
    788 C            4.9062    11.4040   -24.2479 C       5      r5    -0.0005
    789 C            5.8715    10.8485   -23.2660 C       5      r5     0.0129
    790 C            6.3154     8.0728   -21.9168 C       7      r7    -0.0036
    791 C            6.4766     9.7190   -23.8183 C       5      r5     0.0378
    792 C            6.6415     8.6477   -20.6282 C       7      r7     0.0016
    793 C            6.9803     8.5800   -23.1500 C       7      r7     0.0099
    794 C            7.3799    11.1481   -21.1058 C       5      r5     0.0205
    795 C            7.7678     7.6711   -23.9306 C       7      r7     0.0097
    796 C            7.6748     9.6549   -20.6702 C       7      r7     0.0044
    797 O            8.6491    10.9313   -24.3567 O       6      r6    -0.5053
    798 C           10.2936     9.9077   -20.8997 C       7      r7     0.0087
    799 C           10.6473     7.5181   -20.6445 C       5      r5    -0.0014
    800 C           11.1459     8.8020   -21.1731 C       7      r7     0.0029
    801 C           12.5088     8.6266   -21.5740 C       7      r7    -0.0004
    802 C           12.8841     7.3152   -22.1615 C       7      r7     0.0077
    803 C           13.4203     9.6642   -21.1765 C       7      r7    -0.0017
    804 C           14.0656     7.1301   -23.1044 C       7      r7    -0.0388
    805 C           14.7515     9.5469   -21.7952 C       7      r7     0.0054
    806 C           15.2002    10.8105   -22.3524 C       7      r7     0.0002
    807 C           15.1387    10.1506   -24.9336 C       7      r7    -0.0017
    808 C           15.3537     7.1525   -22.3903 C       7      r7     0.2180
    809 C           15.6752     8.3624   -21.7898 C       7      r7    -0.0412
    810 C           15.7877    10.6062   -23.6978 C       7      r7    -0.0007
    811 C           17.0455     8.1453   -21.3308 C       5      r5    -0.0343
    812 C           17.2673    10.7516   -23.7048 C       7      r7    -0.0012
    813 C           18.1586    10.3045   -24.7828 C       7      r7    -0.0012
    814 C           18.1423     9.0974   -20.9445 C       0      r0     0.0051
    815 C           19.6149     8.7162   -20.9426 C       7      r7    -0.0051
    816 C           19.8946     6.9437   -24.4180 C       7      r7     0.0065
    817 C           20.4579     8.3303   -22.0896 C       7      r7    -0.0004
    818 C           20.6615     8.1863   -24.6318 C       7      r7    -0.0009
    819 C           20.7150     9.0040   -23.3792 C       6      r6     0.0003
    820 C           20.9569     6.9047   -22.1140 C       7      r7    -0.0025
    821 C           21.7166    10.0843   -23.3682 C       5      r5    -0.0004
    822 C           23.1556     9.8669   -23.2996 C       5      r5    -0.0004
    823 C           23.3597     7.9509   -20.8466 C       5      r5    -0.0014
    824 C           23.7154    11.1478   -23.5898 C       5      r5     0.0014
    825 C           24.0800     8.7181   -23.2626 C       6      r6    -0.0021
    826 C           24.2116     7.8458   -22.1455 C       6      r6    -0.0025
    827 C           24.9871     8.4706   -24.4321 C       6      r6     0.0014
    828 C          -25.0966    15.1648   -23.4196 C       5      r5    -0.0014
    829 C          -25.0547    12.6008   -20.2875 C       6      r6    -0.0015
    830 C          -25.0353    12.8069   -23.5113 C       5      r5    -0.0004
    831 C          -24.5461    15.3568   -20.6797 C       6      r6    -0.0007
    832 C          -23.8283    11.9058   -20.4466 C       6      r6    -0.0042
    833 C          -23.7023    14.7435   -23.3872 C       5      r5     0.0008
    834 C          -23.6422    13.3454   -23.5020 C       5      r5    -0.0032
    835 C          -23.0839    15.2270   -21.0119 C       6      r6    -0.0016
    836 C          -22.8780    15.5065   -22.4534 C       6      r6    -0.0007
    837 C          -22.5851    12.3656   -23.4261 C       6      r6     0.0112
    838 C          -21.5535    12.8912   -20.8873 C       0      r0    -0.0348
    839 C          -21.2080    12.7916   -23.1698 C       6      r6    -0.0550
    840 C          -20.5916    13.0154   -21.8606 C       6      r6     0.2318
    841 C          -20.3774    13.2560   -24.2970 C       5      r5     0.0390
    842 O          -19.0763    13.3285   -21.6399 O       6      r6    -0.4839
    843 C          -19.0268    12.7838   -24.1527 C       5      r5    -0.0603
    844 C          -18.3889    12.8445   -22.9034 C       6      r6     0.2427
    845 C          -16.9844    12.9739   -23.0377 C       6      r6    -0.0385
    846 C          -16.7720    15.8073   -24.1999 C       5      r5     0.0033
    847 C          -16.3802    12.4828   -24.2422 C       7      r7     0.0031
    848 C          -16.1072    13.7957   -22.0890 C       0      r0     0.0372
    849 C          -16.0306    15.1947   -21.8844 C       0      r0     0.0051
    850 C          -15.9839    14.8333   -24.9858 C       5      r5    -0.0000
    851 C          -15.4153    13.5207   -24.5471 C       7      r7     0.0003
    852 C          -15.2483    13.0507   -21.1287 C       6      r6    -0.0018
    853 C          -15.1112    15.5953   -20.7049 C       6      r6    -0.0008
    854 C          -13.9886    12.3349   -21.5689 C       5      r5     0.0009
    855 C          -13.6608    15.6276   -21.0141 C       6      r6    -0.0025
    856 C          -13.5008    15.6181   -24.5022 C       6      r6    -0.0007
    857 C          -12.6602    15.6679   -23.2642 C       7      r7    -0.0017
    858 C          -12.5895    12.7858   -21.5437 C       7      r7     0.0004
    859 C          -11.9210    13.7681   -20.6363 C       7      r7    -0.0016
    860 C          -11.9163    11.8907   -22.4302 C       7      r7    -0.0009
    861 C          -11.3021    15.2816   -23.6170 C       7      r7    -0.0030
    862 C          -10.9127    14.4708   -24.8526 C       6      r6    -0.0000
    863 C          -10.4646    11.6716   -22.5102 C       7      r7    -0.0000
    864 C          -10.1943    15.5565   -22.7471 C       7      r7    -0.0068
    865 C           -9.5484    14.0671   -24.9751 C       6      r6    -0.0017
    866 C           -9.7082    11.6276   -21.2488 C       7      r7     0.0003
    867 C           -8.8098    15.7303   -23.2863 C       6      r6     0.0172
    868 C           -8.5273    14.4377   -23.9677 C       6      r6     0.0071
    869 C           -7.5081    13.3750   -23.6094 C       6      r6     0.0137
    870 C           -7.0194    12.7338   -24.7873 C       5      r5     0.0049
    871 C           -7.1371    13.7343   -21.1242 C       6      r6    -0.0426
    872 C           -6.8852    12.9005   -22.3701 C       6      r6     0.0314
    873 C           -6.4767    14.9369   -20.8507 C       5      r5     0.2318
    874 C           -6.0164    11.8167   -24.8115 C       5      r5     0.0073
    875 C           -5.9181    11.7508   -22.3017 C       6      r6     0.0017
    876 O           -5.6636    15.7216   -21.8382 O       5      r5    -0.4790
    877 C           -5.2968    11.2691   -21.0195 C       6      r6     0.0010
    878 C           -3.0645    12.5849   -20.5523 C       7      r7     0.0034
    879 C           -1.9395    11.5980   -20.4778 C       7      r7     0.0145
    880 C           -1.7744    14.6338   -20.9447 C       7      r7     0.0026
    881 C           -0.8826    11.6729   -21.5820 C       7      r7    -0.0040
    882 C           -0.4047    14.1123   -20.9092 C       7      r7     0.0134
    883 C            0.0263    12.7756   -21.1419 C       7      r7     0.0068
    884 C           -0.1604    12.0414   -23.9637 C       5      r5    -0.0014
    885 C            0.1274    15.5650   -24.9053 C       7      r7    -0.0028
    886 C           -0.0797    14.1819   -24.8186 C       7      r7    -0.0004
    887 C            0.5854    13.3245   -23.8002 C       5      r5    -0.0024
    888 C            1.3929    12.4616   -20.9098 C       7      r7     0.0005
    889 C            1.7790    13.8835   -23.1075 C       7      r7    -0.0021
    890 C            2.1201    11.4991   -21.6540 C       7      r7    -0.0017
    891 C            1.9625    15.3375   -23.0473 C       7      r7    -0.0059
    892 C            2.6956    11.8211   -22.9344 C       7      r7    -0.0002
    893 C            3.0047    13.2465   -22.7279 C       7      r7    -0.0012
    894 C            4.1503    13.4629   -21.7292 C       7      r7    -0.0020
    895 C            4.5776    14.7991   -21.0692 C       7      r7     0.0010
    896 C            5.0708    12.3964   -21.8615 C       0      r0    -0.0018
    897 C            5.9437    11.3998   -21.9692 C       0      r0    -0.0028
    898 C            7.4441    15.4482   -21.5891 C       0      r0    -0.0038
    899 C            8.0472    15.0299   -22.6325 C       0      r0    -0.0016
    900 C            8.5062    11.8842   -21.8903 C       5      r5    -0.0522
    901 C            8.8192    11.9123   -23.2175 C       5      r5     0.2484
    902 C            9.0888    13.0450   -21.0933 C       7      r7     0.0044
    903 C            9.4056    14.2174   -22.2716 C       7      r7     0.0066
    904 C            9.5372    13.1625   -23.3735 C       5      r5    -0.0554
    905 C           10.5298    13.3302   -24.3670 C       5      r5     0.0122
    906 C           10.7229    14.9225   -22.4949 C       7      r7    -0.0018
    907 C           10.7089    12.2619    24.8049 C       5      r5     0.1291
    908 C           11.0462    15.5648    24.9991 C       6      r6     0.0097
    909 C           11.3931    14.6067   -23.8718 C       5      r5     0.0038
    910 C           11.4844    15.2190   -21.3106 C       7      r7    -0.0031
    911 C           12.8185    15.8908   -21.6008 C       0      r0    -0.0022
    912 C           12.9281    14.1929   -23.8593 C       6      r6     0.0141
    913 C           13.6344    13.6867   -22.8108 C       0      r0     0.0012
    914 C           14.1142    15.8062   -20.8658 C       5      r5    -0.0014
    915 C           14.2352    13.2925   -21.6884 C       7      r7    -0.0021
    916 C           14.3256    14.3528   -20.6928 C       7      r7     0.0003
    917 C           15.3549    12.0719   -21.5657 C       7      r7    -0.0025
    918 C           15.8479    14.8330   -24.9609 C       5      r5    -0.0001
    919 C           16.6506    12.7608   -22.3322 C       6      r6    -0.0027
    920 C           16.8924    14.0328   -22.3661 C       0      r0    -0.0012
    921 C           17.2911    15.3817   -22.4351 C       5      r5     0.0001
    922 C           17.6924    11.8039   -22.8314 C       6      r6    -0.0023
    923 C           18.8534    11.4456   -20.6936 C       6      r6    -0.0005
    924 C           18.9897    11.7341   -22.1106 C       6      r6    -0.0014
    925 C           19.5958    15.2844   -21.0868 C       6      r6     0.0021
    926 C           19.6628    13.1480   -23.8008 C       0      r0    -0.0026
    927 C           19.7355    12.9732   -22.3819 C       6      r6    -0.0004
    928 C           19.8669    13.8565   -21.1826 C       6      r6     0.0015
    929 C           20.0520    14.4685   -24.2906 C       6      r6    -0.0007
    930 C           20.2076    11.9094   -24.4478 C       0      r0    -0.0017
    931 C           21.0007    15.1091   -23.4277 C       5      r5     0.0002
    932 C           21.4514    11.4712   -23.7983 C       5      r5     0.0022
    933 C           22.2181    14.5878   -22.7727 C       5      r5     0.0019
    934 C           22.5266    15.7250   -21.9291 C       7      r7    -0.0000
    935 C           22.7273    12.2290   -23.6831 C       5      r5     0.0028
    936 C           23.1101    13.5853   -23.4012 C       6      r6     0.0006
    937 C           23.0697    15.6772   -20.4681 C       7      r7     0.0012
    938 C           24.5510    13.9230   -23.4836 C       5      r5    -0.0010
    939 C           25.1539    11.4070   -23.5854 C       6      r6    -0.0009
    940 C           25.1425    14.0881   -20.3947 C       6      r6    -0.0009
    941 C          -25.1501    16.7179   -20.9958 C       6      r6    -0.0016
    942 C          -24.6566    17.9098   -21.7238 C       7      r7    -0.0023
    943 C          -24.4253    17.3256   -24.2220 C       5      r5    -0.0005
    944 C          -24.0034    18.0753   -23.0285 C       7      r7    -0.0012
    945 C          -23.2431    19.2372   -23.5186 C       7      r7    -0.0011
    946 C          -23.0763    19.1063   -24.9609 C       5      r5    -0.0001
    947 C          -21.6320    16.2225   -22.7665 C       6      r6     0.0073
    948 C          -21.0008    16.4304   -24.0584 C       5      r5     0.0020
    949 C          -21.1410    16.9996   -21.6433 C       6      r6     0.0006
    950 C          -20.2247    18.0830   -21.8803 C       6      r6     0.0013
    951 C          -20.0752    19.0330   -20.7487 C       7      r7     0.0004
    952 C          -19.6586    17.0088   -24.0068 C       5      r5     0.0067
    953 C          -19.3015    17.9987   -22.9970 C       6      r6     0.0012
    954 C          -17.8962    18.4536   -22.8078 C       0      r0     0.0016
    955 C          -17.4836    19.8629   -22.9856 C       7      r7    -0.0021
    956 C          -16.9246    17.4782   -22.2309 C       0      r0     0.0013
    957 C          -16.6598    16.1337   -22.8128 C       0      r0     0.0115
    958 C          -16.7256    18.0095   -20.9322 C       0      r0     0.0042
    959 C          -16.0978    20.1582   -23.5224 C       7      r7     0.0001
    960 C          -15.0149    19.1759   -23.5608 C       5      r5    -0.0010
    961 C          -14.8278    17.8952   -24.1143 C       0      r0    -0.0002
    962 C          -14.2402    16.7875   -24.3459 C       0      r0    -0.0006
    963 C          -13.8229    19.7708   -22.8473 C       5      r5    -0.0025
    964 C          -13.1592    16.4944   -22.1260 C       7      r7    -0.0029
    965 C          -12.4059    17.7297   -21.8865 C       7      r7    -0.0036
    966 C          -12.6304    19.1593   -22.1852 C       6      r6    -0.0013
    967 C          -11.5471    20.0459   -21.7661 C       6      r6    -0.0018
    968 C          -11.0676    17.4089   -21.3405 C       7      r7    -0.0049
    969 C          -10.7888    19.6441   -20.5904 C       6      r6    -0.0035
    970 C          -10.4357    16.0917   -21.4007 C       7      r7     0.0012
    971 C           -9.2200    20.1291   -24.8998 C       7      r7    -0.0015
    972 C           -8.3988    16.9597   -23.9747 C       5      r5     0.0108
    973 C           -8.2541    18.2940   -23.4398 C       5      r5     0.0072
    974 C           -8.1467    19.1809   -24.6682 C       7      r7    -0.0001
    975 C           -8.0436    18.8235   -22.0965 C       0      r0     0.0173
    976 C           -7.7986    19.2104   -20.8543 C       0      r0     0.0383
    977 C           -5.0463    16.6202   -20.7722 C       5      r5     0.1911
    978 C           -3.8126    17.2149   -20.6960 C       5      r5    -0.0761
    979 C           -2.8734    16.8694   -21.9277 C       0      r0     0.0509
    980 C           -2.4694    17.5432   -23.0172 C       0      r0     0.0066
    981 C           -2.0458    18.1194   -24.0077 C       0      r0     0.0119
    982 C           -1.7731    16.0510   -21.3034 C       6      r6    -0.0009
    983 C           -0.5960    18.3295   -21.0277 C       6      r6     0.0327
    984 C           -0.6192    16.8382   -20.9238 C       6      r6    -0.0582
    985 C            0.3604    19.3293   -23.3251 C       7      r7    -0.0034
    986 C            0.4477    19.2299   -21.8098 C       6      r6    -0.0023
    987 C            0.4919    18.1980   -24.1570 C       7      r7    -0.0034
    988 C            1.0717    16.0067   -23.8873 C       5      r5    -0.0028
    989 C            1.3904    17.3189   -23.7457 C       5      r5    -0.0046
    990 C            1.9512    18.6473   -21.7163 C       6      r6     0.0323
    991 C            2.3111    17.5561   -22.6200 C       5      r5    -0.0046
    992 C            2.9866    19.2210   -20.8540 C       0      r0     0.0066
    993 C            2.8827    16.2205   -22.3368 C       7      r7     0.0130
    994 C            3.6571    20.1603   -24.4956 C       7      r7     0.0265
    995 C            3.9923    19.9033   -21.6660 C       6      r6    -0.0084
    996 C            4.2846    15.9004   -22.0142 C       7      r7     0.0002
    997 C            4.4805    19.1146   -24.0142 C       7      r7     0.0363
    998 C            4.8294    19.1336   -22.6003 C       7      r7     0.0185
    999 C            5.4468    16.6289   -22.6215 C       7      r7    -0.0030
   1000 C            5.5751    17.9851   -22.0845 C       7      r7     0.0040
   1001 C            6.3132    16.3764   -23.8171 C       7      r7     0.0009
   1002 C            6.6716    18.3442   -21.1717 C       6      r6     0.0036
   1003 C            7.3735    19.6279   -21.2518 C       7      r7     0.0034
   1004 C            7.6135    15.7871   -23.8719 C       7      r7     0.0008
   1005 C            8.7062    19.8042   -20.7097 C       7      r7    -0.0010
   1006 C            9.8212    16.3624    24.9591 C       0      r0    -0.0020
   1007 C           10.6373    19.8042   -23.8467 C       5      r5     0.0035
   1008 C           10.8865    18.4323   -24.3432 C       6      r6    -0.0013
   1009 C           11.5891    20.4696   -22.9557 C       5      r5    -0.0016
   1010 C           12.1136    18.2592   -21.5944 C       6      r6    -0.0035
   1011 C           12.2214    17.8841   -24.7239 C       5      r5    -0.0042
   1012 C           12.3655    19.6225   -22.1080 C       6      r6    -0.0020
   1013 C           12.7329    17.1731   -22.3095 C       0      r0    -0.0028
   1014 C           13.1546    17.3436   -23.7598 C       5      r5    -0.0023
   1015 C           13.6021    20.2460   -21.7614 C       7      r7    -0.0017
   1016 C           14.2767    19.5042   -20.7692 C       7      r7     0.0003
   1017 C           14.3706    16.9735   -24.4937 C       5      r5    -0.0022
   1018 C           15.6062    19.0488   -20.9480 C       7      r7    -0.0032
   1019 C           15.5129    16.0927   -24.1931 C       0      r0     0.0033
   1020 C           16.2309    19.7487   -22.1012 C       7      r7    -0.0012
   1021 C           16.5455    16.4197   -23.1903 C       5      r5    -0.0004
   1022 C           16.7100    18.9225   -23.2298 C       7      r7    -0.0000
   1023 C           17.0411    19.4814   -24.6508 C       7      r7     0.0007
   1024 C           17.3310    17.6331   -22.9838 C       5      r5    -0.0009
   1025 C           18.5352    16.0046   -21.8243 C       5      r5    -0.0011
   1026 C           18.5435    17.3743   -22.1179 C       5      r5    -0.0001
   1027 C           19.4947    19.7255   -21.7057 C       0      r0    -0.0010
   1028 C           19.6586    18.2656   -21.8060 C       0      r0     0.0011
   1029 C           20.3673    19.8370   -24.0540 C       7      r7     0.0014
   1030 C           21.1780    16.5533   -23.5685 C       5      r5     0.0001
   1031 C           21.0944    17.9069   -21.4474 C       7      r7     0.0011
   1032 C           21.4282    16.8578   -24.9901 C       5      r5    -0.0003
   1033 C           21.8035    20.1142   -24.4029 C       6      r6     0.0004
   1034 C           21.8917    16.9554   -22.3402 C       7      r7     0.0017
   1035 C           22.8073    20.4566   -23.4267 C       7      r7     0.0003
   1036 C           23.8343    19.3233   -21.0884 C       7      r7     0.0013
   1037 C           24.2110    20.3657   -23.8773 C       7      r7     0.0001
   1038 C           25.0100    16.3041   -24.2334 C       0      r0    -0.0006
   1039 C           25.0833    19.1385   -21.7561 C       7      r7    -0.0005
   1040 C           25.1828    20.2256   -22.7955 C       7      r7     0.0005
   1041 C          -25.0117    23.0569   -24.5610 C       7      r7     0.0001
   1042 C          -24.9934    23.9780   -20.9870 C       6      r6     0.0018
   1043 C          -24.8621    24.5047    25.0236 C       0      r0     0.0000
   1044 C          -24.7625    22.6264   -23.1724 C       7      r7     0.0007
   1045 C          -24.2727    21.2772   -22.7494 C       7      r7     0.0004
   1046 C          -22.9757    20.6142   -23.0427 C       7      r7    -0.0020
   1047 C          -22.1257    24.6445   -21.0568 C       0      r0    -0.0011
   1048 C          -21.8847    21.2595   -23.7933 C       7      r7     0.0008
   1049 C          -20.6265    21.5608   -23.1284 C       7      r7    -0.0019
   1050 C          -20.2250    20.4814   -20.8063 C       7      r7    -0.0001
   1051 C          -19.8938    23.6035   -24.7086 C       7      r7     0.0019
   1052 C          -19.7573    20.8889   -22.1588 C       5      r5    -0.0025
   1053 C          -19.6740    22.4711   -23.7823 C       7      r7     0.0009
   1054 C          -18.3273    20.9808   -22.5672 C       7      r7    -0.0000
   1055 C          -18.3173    22.1617   -23.4503 C       7      r7    -0.0013
   1056 C          -17.5293    24.2026   -24.6784 C       5      r5     0.0012
   1057 C          -17.1479    24.9353   -22.2879 C       7      r7    -0.0007
   1058 C          -17.2425    22.8599   -24.1899 C       7      r7     0.0014
   1059 C          -16.6996   -24.8762   -23.6675 C       7      r7     0.0007
   1060 C          -16.4919    24.1540   -21.3929 C       5      r5    -0.0007
   1061 C          -15.8521    22.7054   -23.8796 C       7      r7     0.0014
   1062 C          -15.3432    21.4348   -23.3838 C       7      r7    -0.0010
   1063 C          -15.2836    24.1698   -23.7887 C       7      r7     0.0011
   1064 C          -15.1944    23.7687   -21.5053 C       6      r6    -0.0023
   1065 C          -14.6021    24.6812   -24.9396 C       6      r6     0.0009
   1066 C          -14.4256    24.0060   -22.6432 C       7      r7    -0.0015
   1067 C          -13.9753    21.1310   -22.8831 C       7      r7    -0.0005
   1068 C          -13.5476    22.1285   -20.6343 C       5      r5    -0.0014
   1069 C          -13.1959    23.3160   -22.8703 C       7      r7     0.0001
   1070 C          -13.0658    22.0713   -22.1093 C       7      r7    -0.0002
   1071 C          -12.7329    23.3235   -24.1991 C       6      r6     0.0007
   1072 C          -11.6937    22.4215   -24.6210 C       7      r7    -0.0015
   1073 C          -11.4596    21.5391   -22.1744 C       6      r6    -0.0001
   1074 C          -11.0781   -24.9679   -21.0340 C       7      r7    -0.0001
   1075 C          -10.9238    21.6634   -23.6270 C       7      r7    -0.0000
   1076 C          -10.6661    22.3255   -21.0697 C       6      r6     0.0067
   1077 C          -10.3227    23.7512   -21.1412 C       7      r7    -0.0043
   1078 C           -9.5614    21.2409   -23.9664 C       7      r7    -0.0092
   1079 C           -9.1537    24.6989   -23.8689 C       7      r7    -0.0027
   1080 C           -8.9628    23.4941   -22.9385 C       7      r7    -0.0042
   1081 C           -8.8973    23.9969   -21.5790 C       7      r7     0.0307
   1082 C           -8.5737    22.1374   -23.2891 C       7      r7     0.0374
   1083 C           -7.1160    22.1324   -23.6180 C       7      r7    -0.0274
   1084 C           -6.9212    22.5117   -24.9458 C       7      r7    -0.0026
   1085 O           -6.4861    22.0064   -21.1994 O       6      r6    -0.4694
   1086 C           -6.0444    22.1604   -22.6430 C       6      r6     0.1890
   1087 C           -4.6824    22.4034   -23.0507 C       6      r6     0.1881
   1088 C           -4.4441    22.6617   -24.4382 C       6      r6    -0.0281
   1089 C           -4.0554    22.6164   -20.6032 C       5      r5     0.1789
   1090 O           -3.5254    22.4583   -22.0596 O       6      r6    -0.4587
   1091 C           -2.0070    23.5607   -24.4372 C       6      r6     0.0307
   1092 C           -0.8661    24.3056   -21.6642 C       0      r0     0.0135
   1093 C           -0.8680    22.5901   -24.4210 C       5      r5     0.0006
   1094 C           -0.8219    23.0115   -21.0249 C       0      r0     0.0306
   1095 C           -0.4362    21.8009   -21.8509 C       6      r6     0.0187
   1096 C           -0.4127    21.6989   -23.3509 C       5      r5     0.0153
   1097 C            0.1096    24.6902   -22.7543 C       5      r5    -0.0079
   1098 C            0.1480    20.6755   -21.2313 C       6      r6    -0.0053
   1099 C            0.3067    20.5756   -23.9347 C       7      r7    -0.0071
   1100 C            2.7364    24.8199   -22.3665 C       7      r7    -0.0032
   1101 C            2.9501    23.4009   -22.7165 C       5      r5    -0.0037
   1102 C            3.0648    22.4353   -21.6127 C       5      r5    -0.0015
   1103 C            3.2376    22.7801   -24.0418 C       7      r7     0.0022
   1104 C            3.4476    21.3678   -23.7024 C       7      r7     0.0195
   1105 C            3.5830    21.1965   -22.2536 C       5      r5     0.0047
   1106 C            5.1513    24.6744   -22.1008 C       6      r6     0.0036
   1107 O            6.2362    20.9691   -24.6883 O       0      r0    -0.4921
   1108 C            6.0297    24.1894   -20.9989 C       6      r6     0.0019
   1109 C            6.7309    20.9355   -21.3933 C       7      r7     0.0272
   1110 C            6.9714    21.7235   -24.0163 C       5      r5     0.3439
   1111 C            7.2450    21.7358   -22.4611 C       7      r7    -0.0546
   1112 C            7.7139    23.0270   -24.4607 C       5      r5    -0.0539
   1113 C            8.2848    22.6515   -22.2627 C       7      r7     0.0015
   1114 C            8.3653    23.5733   -23.3603 C       5      r5     0.0041
   1115 C            8.9749    24.7932   -23.7549 C       5      r5     0.0031
   1116 C            9.4685    20.9739   -20.8230 C       7      r7     0.0008
   1117 C            9.3369    22.2396   -21.4244 C       7      r7    -0.0003
   1118 C           10.3324    20.7816   -24.8870 C       7      r7    -0.0022
   1119 C           10.5273    22.9259   -21.1018 C       5      r5    -0.0040
   1120 C           11.1003    24.1489   -21.5256 C       5      r5    -0.0041
   1121 C           11.3792    21.7823   -24.9592 C       7      r7     0.0007
   1122 C           12.1189    21.6205   -23.7446 C       7      r7    -0.0013
   1123 C           12.3472    24.4205   -20.8065 C       7      r7    -0.0038
   1124 C           13.3554    22.1577   -23.4372 C       7      r7    -0.0013
   1125 C           13.7828    24.0032    24.9003 C       7      r7    -0.0003
   1126 C           14.1406    23.2370   -23.9872 C       7      r7    -0.0000
   1127 C           14.0259    21.4136   -22.4202 C       7      r7     0.0001
   1128 C           15.2056    23.3312   -22.9851 C       7      r7     0.0010
   1129 C           15.2299    22.1015   -22.2192 C       7      r7    -0.0009
   1130 C           16.1811    24.3953   -22.6212 C       7      r7    -0.0002
   1131 C           16.4081    21.2377   -22.1210 C       7      r7    -0.0005
   1132 C           16.9976    24.2315   -21.3750 C       7      r7    -0.0019
   1133 C           17.4886    20.9150   -24.3207 C       7      r7     0.0006
   1134 C           17.6602    21.9737   -22.2661 C       7      r7    -0.0010
   1135 C           18.0148    24.9650   -24.2741 C       0      r0     0.0007
   1136 C           18.0033    23.2314   -21.5909 C       7      r7    -0.0008
   1137 C           18.4500    21.2577   -23.3287 C       7      r7     0.0003
   1138 C           19.0675    23.8813   -24.0550 C       6      r6     0.0009
   1139 C           19.3604    23.4365   -21.0122 C       7      r7    -0.0017
   1140 C           19.6576    20.4365   -22.9489 C       7      r7     0.0012
   1141 C           20.2963    24.2629   -21.7997 C       7      r7    -0.0001
   1142 C           20.3236    23.9689   -23.2466 C       7      r7     0.0010
   1143 C           21.4932    23.2218   -23.6849 C       7      r7     0.0005
   1144 C           21.4504    24.7571   -21.0107 C       7      r7    -0.0000
   1145 C           22.4783    22.7232   -22.6828 C       7      r7     0.0005
   1146 C           22.6229    21.2979   -22.2075 C       7      r7     0.0008
   1147 C           22.8165    24.7445   -21.3228 C       7      r7     0.0009
   1148 C           23.3166    20.7201   -21.0406 C       7      r7     0.0010
   1149 C           23.4209    23.7177   -22.2248 C       7      r7     0.0004
   1150 C           24.8553    23.4134   -22.2065 C       6      r6    -0.0002
   1151 C          -23.9261   -21.4189   -19.7226 C       5      r5    -0.0003
   1152 C          -22.8230   -22.3910   -19.7266 C       5      r5     0.0003
   1153 C          -22.1624   -24.3899   -16.9686 C       7      r7    -0.0040
   1154 C          -21.8338   -22.6309   -18.6137 C       7      r7    -0.0017
   1155 C          -21.5595   -23.9980   -18.2441 C       7      r7    -0.0031
   1156 C          -21.4435   -21.4846   -17.8295 C       7      r7    -0.0011
   1157 C          -20.8825   -21.5762   -16.4922 C       7      r7    -0.0007
   1158 C          -20.4592   -24.8285   -18.8684 C       0      r0    -0.0047
   1159 C          -20.3319   -20.4453   -19.6371 C       6      r6     0.0013
   1160 C          -19.7422   -21.7428   -20.0279 C       7      r7     0.0001
   1161 C          -19.3579   -24.2219   -19.5156 C       7      r7    -0.0014
   1162 C          -19.4289   -21.4091   -16.3359 C       0      r0    -0.0012
   1163 C          -19.1338   -22.7871   -19.1657 C       7      r7    -0.0023
   1164 C          -18.8566   -24.9111   -16.4227 C       6      r6     0.0311
   1165 C          -18.7331   -20.4415   -17.2305 C       6      r6    -0.0009
   1166 C          -18.1142   -22.5821   -18.2460 C       0      r0    -0.0019
   1167 C          -17.6474   -21.2018   -17.9269 C       6      r6    -0.0023
   1168 C          -17.2547   -23.6450   -17.7803 C       0      r0    -0.0034
   1169 C          -16.7826   -20.4928   -18.8055 C       6      r6    -0.0004
   1170 C          -16.2371   -21.2132   -20.0158 C       7      r7    -0.0001
   1171 C          -15.8674   -23.2910   -17.4805 C       5      r5    -0.0034
   1172 C          -15.2127   -24.1198   -16.4628 C       5      r5     0.0125
   1173 C          -15.3963   -22.3587   -19.8796 C       7      r7    -0.0008
   1174 C          -14.9934   -22.8028   -18.5449 C       5      r5    -0.0016
   1175 C          -14.0235   -24.4633   -17.2032 C       7      r7    -0.0079
   1176 C          -13.8642   -23.7230   -18.4514 C       7      r7    -0.0025
   1177 C          -12.9773   -24.0020   -19.5649 C       7      r7    -0.0043
   1178 C          -12.8006   -20.5724   -17.1592 C       6      r6     0.0024
   1179 C          -11.6846   -24.6913   -19.7102 C       7      r7    -0.0005
   1180 C          -11.6360   -21.4979   -17.1032 C       6      r6     0.0040
   1181 C          -11.0482    24.8049   -18.4704 C       7      r7    -0.0018
   1182 C          -10.2919   -21.0653   -17.4975 C       6      r6    -0.0021
   1183 C           -9.7287   -20.4630   -18.7696 C       6      r6    -0.0019
   1184 C           -9.7373   -24.6423   -17.9866 C       7      r7    -0.0040
   1185 C           -9.5606   -23.6824   -16.8538 C       7      r7    -0.0011
   1186 C           -9.4775   -20.5315   -16.4093 C       6      r6     0.0203
   1187 C           -8.5241    24.9015   -18.7211 C       7      r7     0.0018
   1188 C           -8.3271   -23.1353   -16.3576 C       7      r7    -0.0013
   1189 C           -7.9655   -24.3133   -19.8744 C       7      r7     0.0044
   1190 C           -7.6123   -20.5829   -20.2293 C       6      r6    -0.0001
   1191 C           -7.3350   -23.0339   -19.6737 C       7      r7    -0.0013
   1192 C           -7.1122   -23.3161   -17.1092 C       7      r7    -0.0032
   1193 C           -6.7922   -22.5875   -18.3868 C       7      r7    -0.0013
   1194 C           -6.6380   -24.7281   -17.1546 C       7      r7    -0.0005
   1195 C           -5.5874   -21.7607   -18.1633 C       0      r0     0.0003
   1196 C           -5.2167   -24.8479   -16.6917 C       7      r7    -0.0037
   1197 C           -4.2370   -22.3697   -17.8909 C       0      r0     0.0006
   1198 C           -3.9497   -22.8295   -16.5332 C       6      r6    -0.0013
   1199 C           -3.1218   -21.9290   -18.7912 C       0      r0    -0.0006
   1200 C           -2.8007   -22.5185   -20.1194 C       0      r0     0.0021
   1201 C           -2.6384   -23.5809   -16.4669 C       7      r7    -0.0010
   1202 C           -2.3903   -20.7262   -18.4192 C       6      r6     0.0004
   1203 C           -2.0399   -23.6639   -20.4314 C       0      r0     0.0021
   1204 C           -1.2580   -20.7368   -16.3735 C       6      r6    -0.0006
   1205 C            0.0390   -20.9440   -18.3816 C       6      r6    -0.0010
   1206 C            0.0531   -20.6947   -16.9432 C       6      r6     0.0002
   1207 C            1.1968   -21.3147   -19.1444 C       6      r6    -0.0003
   1208 C            1.3720   -20.5002   -16.4042 C       6      r6    -0.0002
   1209 C            2.1497   -24.2820   -16.0990 C       7      r7     0.0074
   1210 C            2.4314   -21.4293   -18.5057 C       5      r5    -0.0003
   1211 C            2.4695   -20.8614   -17.2175 C       5      r5    -0.0003
   1212 C            3.6547   -24.1671   -16.1051 C       7      r7     0.0002
   1213 C            3.8715   -23.0091   -19.6689 C       6      r6     0.0004
   1214 C            3.7631   -21.7057   -19.0196 C       5      r5     0.0006
   1215 C            3.6872   -24.1706   -18.7037 C       6      r6    -0.0011
   1216 C            3.8768   -20.7327   -16.9861 C       7      r7    -0.0017
   1217 C            4.2471   -23.6644   -17.3637 C       7      r7    -0.0009
   1218 C            4.8004   -21.2642   -18.0373 C       7      r7    -0.0006
   1219 C            5.4444   -22.7443   -17.3282 C       7      r7    -0.0012
   1220 C            6.2441   -23.0098   -18.6176 C       7      r7    -0.0000
   1221 C            6.3813   -22.8717   -16.1327 C       7      r7    -0.0023
   1222 C            6.7401   -24.5955   -20.4948 C       6      r6    -0.0007
   1223 C            6.5320   -24.3536   -19.0498 C       7      r7    -0.0023
   1224 C            6.9074   -20.5501   -16.2292 C       7      r7     0.0049
   1225 C            7.0498   -21.9930   -19.3106 C       7      r7     0.0013
   1226 C            7.9399   -21.0196   -18.6457 C       7      r7    -0.0032
   1227 C            8.7997   -24.4591   -16.9802 C       0      r0    -0.0055
   1228 C            9.2306   -20.9235   -19.3133 C       5      r5     0.0428
   1229 C            9.8057   -22.4193   -16.7733 C       7      r7     0.0022
   1230 C           10.0698   -23.9228   -17.0397 C       7      r7    -0.0077
   1231 C           10.4966   -20.7116   -18.4609 C       6      r6    -0.0479
   1232 C           10.8139   -21.5135   -17.2649 C       7      r7     0.0317
   1233 C           11.4132   -24.4618   -16.7703 C       7      r7    -0.0007
   1234 C           12.1841   -21.5563   -16.6444 C       7      r7     0.0001
   1235 C           13.1400   -21.9304   -20.4416 C       7      r7    -0.0560
   1236 C           14.2674   -21.3809   -19.7354 C       7      r7     0.0165
   1237 C           14.5482   -23.8578   -19.7635 C       7      r7     0.0017
   1238 C           15.2176   -22.5147   -19.5930 C       5      r5    -0.0036
   1239 C           16.6040   -22.5574   -19.9402 C       5      r5    -0.0007
   1240 C           17.3706   -23.7413   -19.4767 C       7      r7    -0.0001
   1241 C           17.4476   -21.2978   -20.0648 C       7      r7    -0.0017
   1242 C           17.4674   -21.1049   -18.4475 C       7      r7    -0.0022
   1243 C           17.5248   -22.2026   -17.5096 C       7      r7    -0.0017
   1244 C           17.4153   -23.6487   -17.9556 C       7      r7    -0.0010
   1245 C           17.5160   -24.6847   -17.1078 C       7      r7     0.0100
   1246 C           17.8085   -21.9496   -16.0916 C       7      r7    -0.0032
   1247 C           18.7928   -23.1789   -20.0539 C       7      r7    -0.0016
   1248 C           18.9483   -21.7704   -20.4846 C       7      r7    -0.0017
   1249 C           19.9251   -23.8217   -19.8748 C       0      r0    -0.0018
   1250 C           20.3829   -21.4549   -16.3599 C       5      r5     0.0001
   1251 C           21.0708   -24.5237   -19.6925 C       7      r7    -0.0017
   1252 C           20.8474   -23.7164   -16.5753 C       5      r5    -0.0035
   1253 C           21.3512   -22.3495   -16.8272 C       5      r5    -0.0016
   1254 C           21.3476    24.9299   -17.1064 C       6      r6    -0.0004
   1255 C           22.7653   -21.9780   -17.3857 C       6      r6     0.0017
   1256 C           22.9512   -22.5257   -18.5623 C       0      r0     0.0035
   1257 C           22.9987   -23.0612   -19.8383 C       7      r7    -0.0003
   1258 C           23.1864   -20.6223   -16.8422 C       7      r7     0.0018
   1259 C          -24.9469   -19.8292   -15.9623 C       6      r6    -0.0016
   1260 C          -24.6661   -18.8682   -17.0583 C       6      r6    -0.0008
   1261 C          -24.1460   -20.1191   -18.9488 C       6      r6    -0.0005
   1262 C          -23.5304   -19.2691   -17.9065 C       6      r6    -0.0003
   1263 C          -22.7893   -15.9667   -16.2473 C       7      r7    -0.0005
   1264 C          -21.9057   -18.9595   -17.9669 C       6      r6    -0.0002
   1265 C          -21.4356   -17.7624   -18.7254 C       5      r5    -0.0007
   1266 C          -21.4528   -15.7946   -16.9577 C       7      r7     0.0008
   1267 C          -21.3132   -20.2373   -18.6211 C       6      r6     0.0008
   1268 C          -21.1951   -16.3967   -18.2737 C       7      r7    -0.0008
   1269 C          -21.1559   -18.5043   -16.6209 C       0      r0     0.0013
   1270 C          -20.6520   -17.9683   -19.8923 C       5      r5    -0.0002
   1271 C          -20.0980   -16.7156   -20.3208 C       5      r5    -0.0004
   1272 C          -19.9209   -19.1948   -20.3150 C       6      r6     0.0013
   1273 C          -19.7497   -18.3028   -16.3799 C       7      r7     0.0019
   1274 C          -18.6855   -19.0446   -17.1762 C       7      r7     0.0008
   1275 C          -17.4111   -18.4543   -17.6624 C       7      r7     0.0001
   1276 C          -17.0628   -17.0384   -17.3969 C       7      r7     0.0010
   1277 C          -16.9644   -16.3403   -16.0680 C       7      r7    -0.0002
   1278 C          -16.4610   -16.4750   -18.6105 C       6      r6     0.0004
   1279 C          -16.3799   -19.1555   -18.4453 C       6      r6    -0.0008
   1280 C          -15.3570   -17.2019   -19.2420 C       6      r6    -0.0005
   1281 C          -15.1760   -18.5984   -19.0950 C       6      r6    -0.0004
   1282 C          -14.5937   -16.3384   -20.2683 C       7      r7     0.0003
   1283 C          -14.2789   -18.1878   -15.9325 C       6      r6     0.0024
   1284 C          -13.7684   -19.1878   -19.1835 C       0      r0    -0.0009
   1285 C          -13.2523   -18.1921   -16.9519 C       6      r6     0.0018
   1286 C          -13.0695   -19.3043   -17.9080 C       6      r6     0.0005
   1287 C          -12.7995   -19.1106   -20.2394 C       0      r0    -0.0008
   1288 C          -12.1596   -17.1958   -16.9422 C       6      r6     0.0012
   1289 C          -12.0147   -16.2570   -20.2025 C       0      r0     0.0001
   1290 C          -11.3240   -18.7830   -19.9595 C       0      r0    -0.0001
   1291 C          -11.4427   -17.3603   -19.3932 C       0      r0    -0.0010
   1292 C          -11.0939   -17.1285   -18.0057 C       6      r6    -0.0000
   1293 C          -10.5237   -19.6434   -19.3652 C       0      r0    -0.0005
   1294 C          -10.0091   -16.1068   -17.8522 C       6      r6     0.0000
   1295 C           -8.2090   -20.2368   -18.9323 C       6      r6    -0.0016
   1296 C           -8.0135   -20.4720   -16.5421 C       6      r6    -0.0041
   1297 C           -7.3347   -20.1752   -17.8105 C       6      r6    -0.0004
   1298 C           -6.1691   -16.7222   -19.2032 C       7      r7     0.0000
   1299 C           -5.8433   -20.4271   -17.5845 C       6      r6    -0.0005
   1300 C           -5.1357   -19.8678   -16.4610 C       6      r6    -0.0002
   1301 C           -4.9212   -17.4420   -19.0205 C       5      r5     0.0009
   1302 C           -4.1947   -16.9446   -17.9539 C       7      r7     0.0002
   1303 C           -4.2129   -18.0890   -20.0253 C       6      r6     0.0001
   1304 C           -3.6789   -20.0826   -16.1899 C       6      r6     0.0006
   1305 C           -2.9718   -17.4890   -17.5277 C       7      r7     0.0011
   1306 C           -2.8982   -18.5801   -19.8336 C       6      r6    -0.0017
   1307 C           -2.4663   -20.2909   -17.0146 C       6      r6     0.0019
   1308 C           -2.3484   -17.2923   -16.2386 C       7      r7     0.0010
   1309 C           -2.2307   -18.1080   -18.6126 C       6      r6     0.0002
   1310 C           -1.1239   -20.5761   -19.1516 C       6      r6    -0.0004
   1311 C           -1.0721   -20.0897   -20.5192 C       6      r6     0.0002
   1312 C           -0.8950   -17.5294   -18.5848 C       6      r6    -0.0009
   1313 C           -0.8980   -17.3816   -16.0368 C       6      r6    -0.0002
   1314 C           -0.4154   -16.7648   -19.7275 C       5      r5    -0.0011
   1315 C           -0.1831   -17.5066   -17.2775 C       6      r6     0.0016
   1316 C            0.9502   -16.9849   -20.2543 C       5      r5     0.0010
   1317 C            1.2052   -17.0461   -17.4856 C       5      r5     0.0014
   1318 C            2.2015   -17.8235   -20.2906 C       5      r5     0.0003
   1319 C            2.5138   -17.6179   -17.9072 C       7      r7     0.0019
   1320 C            2.9283   -18.3165   -19.1451 C       7      r7     0.0020
   1321 C            3.5154   -16.5748   -17.5830 C       7      r7     0.0019
   1322 C            4.3590   -18.3091   -19.5795 C       7      r7    -0.0029
   1323 C            4.8593   -16.8158   -17.0338 C       7      r7    -0.0011
   1324 C            5.4592   -18.7168   -18.6945 C       7      r7     0.0014
   1325 C            5.7946   -20.0341   -18.2474 C       7      r7    -0.0028
   1326 C            5.9760   -17.5437   -17.8185 C       7      r7     0.0031
   1327 C            7.1237   -20.2502   -17.6476 C       7      r7     0.0121
   1328 C            7.1203   -17.2640   -17.1713 C       0      r0    -0.0013
   1329 C            8.1583   -16.9976   -16.2979 C       6      r6     0.0377
   1330 C            9.6012   -16.9657   -16.7592 C       5      r5    -0.0621
   1331 C           10.4570   -17.9635   -16.4176 C       5      r5     0.2663
   1332 C           11.5625   -20.1207   -19.0604 C       7      r7     0.2405
   1333 C           11.7419   -16.3694   -17.5770 C       5      r5     0.0081
   1334 C           11.8164   -17.6431   -16.8565 C       5      r5    -0.0423
   1335 C           12.7608   -20.1895   -16.7980 C       7      r7     0.0265
   1336 C           12.7605   -19.9363   -18.2609 C       7      r7    -0.0459
   1337 C           13.0209   -17.8984   -16.2466 C       7      r7     0.0259
   1338 C           14.0149   -20.1369   -19.0374 C       7      r7     0.0266
   1339 C           14.2641   -15.9584   -16.8358 C       7      r7     0.0003
   1340 C           14.9697   -19.0137   -19.3447 C       0      r0     0.0018
   1341 C           15.0810   -17.8552   -18.6608 C       0      r0     0.0007
   1342 C           15.1572   -16.6974   -17.9573 C       7      r7    -0.0032
   1343 C           15.9561   -20.3940   -16.0789 C       0      r0    -0.0074
   1344 C           16.8431   -19.4201   -16.6547 C       6      r6    -0.0053
   1345 C           17.5068   -16.5810   -20.2636 C       6      r6     0.0098
   1346 C           17.4325   -16.5713   -18.7908 C       6      r6     0.0011
   1347 C           17.6039   -19.8114   -17.8960 C       6      r6    -0.0051
   1348 C           18.2216   -17.5179   -18.0060 C       6      r6     0.0235
   1349 C           18.3108   -18.7911   -18.6853 C       6      r6     0.0037
   1350 C           18.4000   -17.6757   -16.5173 C       6      r6    -0.0076
   1351 C           18.8490   -18.7958   -20.0885 C       5      r5     0.0257
   1352 C           19.7788   -18.0043   -16.1139 C       6      r6     0.0108
   1353 C           20.6805   -16.2567   -17.6552 C       5      r5     0.2177
   1354 O           20.5435   -16.2470   -19.1829 O       5      r5    -0.4704
   1355 C           20.9716   -17.4517   -16.7805 C       6      r6    -0.0332
   1356 C           22.2821   -19.5701   -16.4258 C       7      r7    -0.0000
   1357 C           22.2595   -18.1624   -16.6372 C       6      r6     0.0168
   1358 C           23.4869   -15.8274   -16.9493 C       5      r5    -0.0012
   1359 C           23.5165   -17.3805   -16.9099 C       0      r0     0.0021
   1360 C           24.0895   -17.4257   -20.1175 C       7      r7     0.0234
   1361 C           24.2921   -19.8281   -20.5717 C       5      r5     0.0011
   1362 C           24.6429   -18.1381   -18.9211 C       5      r5     0.0015
   1363 C           24.7468   -17.8654   -17.5066 C       6      r6     0.0005
   1364 C           24.6882   -16.1048   -20.2792 C       7      r7     0.0074
   1365 C           25.1181   -19.4612   -19.4211 C       5      r5    -0.0011
   1366 C          -24.5074   -14.4114   -18.9309 C       5      r5    -0.0024
   1367 C          -23.6011   -14.7743   -16.4163 C       7      r7    -0.0007
   1368 C          -23.7623   -14.1069   -17.7286 C       7      r7    -0.0004
   1369 C          -23.6588   -14.0632   -20.0402 C       7      r7    -0.0008
   1370 C          -22.6545   -13.1210   -19.5546 C       7      r7    -0.0010
   1371 C          -22.6686   -13.2028   -18.0780 C       7      r7    -0.0002
   1372 C          -21.3544   -12.8892   -20.0827 C       7      r7     0.0005
   1373 C          -21.2304   -13.2087   -17.7562 C       7      r7     0.0008
   1374 C          -20.9678   -14.3536   -16.8857 C       7      r7     0.0014
   1375 C          -20.1926   -15.8563   -19.1862 C       7      r7     0.0007
   1376 C          -20.2056   -13.0848   -19.0292 C       7      r7     0.0006
   1377 C          -19.5475   -14.5119   -19.1305 C       7      r7     0.0003
   1378 C          -18.9216   -12.2313   -19.0566 C       7      r7     0.0009
   1379 C          -18.1395   -14.4403   -19.0259 C       5      r5     0.0014
   1380 C          -17.7870   -13.0360   -18.9354 C       7      r7    -0.0004
   1381 C          -16.7495   -15.0626   -18.8735 C       5      r5     0.0004
   1382 C          -16.9540   -12.4250   -16.7037 C       7      r7     0.0004
   1383 C          -16.4264   -12.6504   -18.2269 C       7      r7    -0.0007
   1384 C          -15.8602   -14.1041   -18.3283 C       7      r7    -0.0002
   1385 C          -15.6817   -11.6669   -19.1981 C       7      r7    -0.0009
   1386 C          -14.6439   -11.9649   -20.0949 C       7      r7    -0.0007
   1387 C          -14.4091   -14.2186   -18.1596 C       7      r7    -0.0011
   1388 C          -14.0310   -13.2918   -20.4337 C       7      r7     0.0003
   1389 C          -13.6936   -14.2755   -19.4673 C       7      r7    -0.0001
   1390 C          -13.6243   -13.7952   -16.9539 C       7      r7    -0.0015
   1391 C          -13.3491   -15.6482   -19.9476 C       7      r7    -0.0011
   1392 C          -12.4404   -11.6907   -17.4533 C       7      r7     0.0109
   1393 C          -12.3886   -13.2107   -17.4374 C       7      r7    -0.0018
   1394 C          -11.4367   -13.9877   -18.2682 C       6      r6     0.0015
   1395 C          -11.3545   -15.1699   -15.9898 C       7      r7    -0.0018
   1396 C          -11.1428   -13.3547   -19.5696 C       5      r5    -0.0082
   1397 C          -11.3264   -12.0074   -19.5501 C       5      r5     0.0435
   1398 C          -10.7341   -14.9236   -17.3679 C       6      r6    -0.0012
   1399 C           -9.4912   -12.6664   -16.5434 C       6      r6     0.0003
   1400 C           -8.6616   -13.3166   -17.4368 C       7      r7    -0.0003
   1401 C           -8.6377   -15.8081   -18.4408 C       7      r7    -0.0004
   1402 C           -8.3929   -15.1401   -19.7249 C       7      r7    -0.0009
   1403 C           -8.1924   -12.7216   -18.7013 C       7      r7    -0.0018
   1404 C           -7.9609   -13.6936   -19.8503 C       7      r7    -0.0009
   1405 C           -7.7259   -14.2275   -16.8090 C       7      r7    -0.0014
   1406 C           -7.5038   -15.4933   -17.5257 C       7      r7    -0.0002
   1407 C           -6.2272   -15.7956   -18.0816 C       7      r7    -0.0009
   1408 C           -5.5705   -11.8092   -16.6324 C       0      r0    -0.0020
   1409 C           -4.7431   -15.6831   -17.5745 C       7      r7     0.0009
   1410 C           -4.5482   -15.1202   -16.1558 C       7      r7     0.0015
   1411 C           -3.9425   -13.9045   -16.0338 C       5      r5     0.0007
   1412 C           -3.9635   -14.5545   -18.4892 C       5      r5    -0.0013
   1413 C           -3.7653   -11.9069   -18.0533 C       6      r6    -0.0013
   1414 C           -3.5460   -13.4049   -17.5531 C       5      r5    -0.0011
   1415 C           -3.1215   -14.7021   -19.5014 C       0      r0     0.0002
   1416 C           -2.0512   -13.4336   -17.3762 C       6      r6     0.0002
   1417 C           -1.4369   -11.8399   -19.1179 C       6      r6    -0.0019
   1418 C           -1.4530   -13.5880   -16.0580 C       5      r5     0.0008
   1419 C           -1.1780   -13.1152   -18.4632 C       6      r6     0.0002
   1420 C           -0.4793   -11.5300   -20.1181 C       6      r6    -0.0021
   1421 C           -0.1326   -14.2182   -15.9282 C       5      r5     0.0007
   1422 C            0.2109   -13.6777   -18.4523 C       6      r6     0.0002
   1423 C            0.4755   -14.5051   -17.2592 C       6      r6     0.0010
   1424 C            0.9816   -13.4953   -19.6570 C       6      r6    -0.0012
   1425 C            1.3200   -11.4053   -16.5550 C       5      r5    -0.0002
   1426 C            1.4253   -11.3035   -17.9402 C       7      r7    -0.0007
   1427 C            1.4206   -15.6317   -17.1663 C       5      r5     0.0015
   1428 C            2.3488   -14.0598   -19.5080 C       6      r6     0.0010
   1429 C            2.5403   -11.7839   -18.6121 C       7      r7    -0.0015
   1430 C            2.9343   -13.2105   -18.4290 C       6      r6     0.0005
   1431 C            2.8949   -15.4754   -16.8298 C       5      r5     0.0009
   1432 C            4.1524   -13.6193   -17.8094 C       6      r6    -0.0001
   1433 C            4.3940   -14.9316   -19.9672 C       7      r7    -0.0006
   1434 C            4.8362   -13.0647   -16.6651 C       6      r6    -0.0023
   1435 C            4.9300   -14.2176   -18.8377 C       5      r5     0.0009
   1436 C            6.2359   -12.7991   -16.8372 C       5      r5    -0.0009
   1437 C            6.2731   -14.0347   -18.8823 C       7      r7    -0.0014
   1438 C            6.6925   -14.6542   -20.0672 C       7      r7    -0.0038
   1439 C            6.9101   -13.2032   -17.9180 C       7      r7    -0.0018
   1440 C            7.1712   -12.3155   -15.9575 C       5      r5    -0.0012
   1441 C            8.1579   -14.7243   -20.2628 C       7      r7    -0.0028
   1442 C            8.2282   -12.8006   -17.8542 C       7      r7    -0.0015
   1443 C            8.3918   -12.0829   -16.5874 C       7      r7    -0.0009
   1444 C            8.9752   -13.4882   -20.1715 C       7      r7    -0.0023
   1445 C            9.2743   -12.8730   -18.8623 C       7      r7    -0.0017
   1446 C            9.4037   -11.3329   -15.9929 C       7      r7    -0.0008
   1447 C           10.4401   -15.8206   -17.2024 C       5      r5     0.0073
   1448 C           10.6806   -12.4681   -18.6886 C       7      r7    -0.0017
   1449 C           10.8415   -14.6624   -16.3879 C       5      r5     0.0001
   1450 C           11.3197   -11.4991   -17.7001 C       7      r7     0.0004
   1451 C           11.5908   -14.0823   -20.5238 C       7      r7    -0.0004
   1452 C           11.5496   -12.7899   -19.7485 C       5      r5    -0.0007
   1453 C           12.2143   -14.3962   -16.5954 C       5      r5     0.0001
   1454 C           12.6463   -14.9729   -20.1559 C       7      r7     0.0034
   1455 C           12.6829   -11.8170   -19.6125 C       5      r5    -0.0005
   1456 C           12.8756   -15.4048   -17.6195 C       7      r7     0.0011
   1457 C           12.9609   -13.5185   -15.7357 C       6      r6     0.0008
   1458 C           13.3819   -14.7170   -18.8957 C       7      r7    -0.0004
   1459 C           14.5969   -14.0791   -19.1661 C       7      r7    -0.0026
   1460 C           15.0348   -14.8467   -16.2554 C       6      r6    -0.0031
   1461 C           15.9398   -14.4275   -18.6179 C       7      r7    -0.0005
   1462 C           16.2697   -15.8259   -18.3363 C       7      r7    -0.0052
   1463 C           16.4101   -12.0145   -18.9976 C       6      r6     0.0005
   1464 C           16.9113   -13.3761   -18.6604 C       6      r6    -0.0030
   1465 C           17.0493   -11.7526   -20.3425 C       7      r7    -0.0013
   1466 C           18.1714   -13.4821   -17.8809 C       7      r7     0.0053
   1467 C           18.2112   -12.3972   -16.9159 C       7      r7    -0.0002
   1468 C           19.2961   -14.4075   -18.0062 C       7      r7    -0.0361
   1469 C           19.4406   -11.4511   -19.8660 C       7      r7    -0.0007
   1470 C           19.2485   -14.3353   -20.3956 C       0      r0    -0.0363
   1471 C           19.7156   -14.9430   -19.2861 C       5      r5     0.2240
   1472 C           20.0511   -15.1288   -16.9950 C       7      r7    -0.0365
   1473 C           20.8614   -11.8700   -19.8824 C       6      r6     0.0028
   1474 C           21.4855   -11.8689   -18.5034 C       6      r6     0.0010
   1475 C           22.8981   -12.2993   -18.3336 C       6      r6     0.0039
   1476 C           22.9023   -13.6980   -16.2243 C       5      r5    -0.0014
   1477 C           22.8777   -15.1869   -15.8847 C       5      r5    -0.0024
   1478 C           23.2685   -13.5955   -17.6770 C       5      r5     0.0004
   1479 C           23.6730   -14.9543   -18.1210 C       5      r5     0.0187
   1480 C           24.7109   -15.1561   -19.1514 C       6      r6     0.0039
   1481 C           25.1726    -9.4199   -19.0566 C       5      r5    -0.0002
   1482 C          -24.7602    -7.4655   -17.9458 C       6      r6     0.0003
   1483 C          -24.6697    -8.8326   -20.2036 C       7      r7     0.0004
   1484 C          -23.5145    -7.4775   -18.5642 C       6      r6     0.0002
   1485 C          -23.3846    -8.2717   -19.6618 C       7      r7     0.0004
   1486 C          -21.9776    -8.5142   -19.9543 C       7      r7     0.0004
   1487 C          -21.2130    -7.5143   -17.8506 C       7      r7     0.0004
   1488 C          -20.8989    -8.1911   -19.0896 C       7      r7     0.0007
   1489 C          -20.6113    -7.4598   -16.5581 C       7      r7     0.0002
   1490 C          -19.5458    -8.3576   -19.5600 C       7      r7     0.0008
   1491 C          -19.4584    -8.3008   -16.2799 C       7      r7     0.0008
   1492 C          -18.5650    -8.9970   -17.2935 C       7      r7    -0.0003
   1493 C          -18.5700   -10.7977   -18.8653 C       7      r7     0.0002
   1494 C          -18.4462    -8.2759   -18.6049 C       7      r7    -0.0006
   1495 C          -18.3613   -10.4029   -17.5150 C       7      r7    -0.0003
   1496 C          -17.8965   -11.3924   -16.4635 C       7      r7     0.0003
   1497 C          -17.7010    -7.0506   -18.6088 C       0      r0    -0.0006
   1498 C          -17.6007   -10.1917   -19.8543 C       7      r7    -0.0012
   1499 C          -16.7268    -6.9583   -17.4494 C       7      r7    -0.0013
   1500 C          -16.1464   -10.3533   -19.5344 C       7      r7    -0.0023
   1501 C          -15.5047    -7.7324   -17.6139 C       7      r7    -0.0015
   1502 C          -15.0955    -9.6033   -20.2679 C       5      r5     0.0019
   1503 C          -14.9842    -7.8324   -16.2581 C       6      r6     0.0002
   1504 C          -14.7135    -7.4628   -18.8500 C       7      r7     0.0049
   1505 C          -14.8286    -8.1473   -20.1932 C       7      r7     0.0047
   1506 C          -12.9264   -10.9123   -16.3571 C       7      r7    -0.0064
   1507 C          -13.0069    -9.5030   -16.6669 C       7      r7     0.0039
   1508 C          -12.0444    -8.8756   -17.6116 C       6      r6    -0.0479
   1509 C          -11.7059   -11.0674   -18.5065 C       6      r6    -0.0619
   1510 C          -11.5308    -7.4392   -17.3760 C       5      r5     0.0429
   1511 C          -11.5016    -9.6665   -18.5886 C       6      r6     0.2475
   1512 O          -10.5745    -9.0736   -19.6501 O       6      r6    -0.5060
   1513 C          -10.2072    -7.3488   -16.8327 C       5      r5     0.0135
   1514 C           -9.5682    -8.5993   -16.5721 C       6      r6    -0.0006
   1515 C           -9.2871   -11.3190   -16.5696 C       6      r6    -0.0010
   1516 C           -8.6235   -10.5864   -17.6248 C       7      r7     0.0037
   1517 C           -8.7098    -9.1615   -17.4635 C       7      r7     0.0308
   1518 C           -7.9733   -11.3035   -18.6974 C       7      r7     0.0049
   1519 C           -7.4547    -8.4663   -17.5970 C       7      r7     0.0212
   1520 C           -7.1496   -10.6963   -19.7991 C       7      r7    -0.0044
   1521 C           -7.4151    -7.5736   -16.3609 C       0      r0     0.0107
   1522 C           -6.8801    -9.2687   -19.7826 C       7      r7     0.0126
   1523 C           -6.3663    -8.9908   -18.3940 C       7      r7     0.0420
   1524 C           -5.1791    -9.6861   -17.9672 C       6      r6    -0.0042
   1525 C           -4.9972   -11.2107   -17.7928 C       6      r6    -0.0043
   1526 C           -4.6638    -7.2317   -16.0766 C       6      r6     0.0301
   1527 C           -3.8809    -9.0152   -17.7943 C       6      r6     0.0091
   1528 C           -3.8010    -7.7058   -17.1161 C       6      r6     0.0397
   1529 C           -2.6912    -9.7524   -18.0871 C       6      r6    -0.0032
   1530 C           -2.6885   -11.1675   -18.5471 C       6      r6    -0.0013
   1531 C           -2.4699    -7.1198   -17.0357 C       5      r5     0.0047
   1532 C           -1.4380    -9.2198   -17.4933 C       7      r7     0.0008
   1533 C           -1.3794    -7.9283   -16.8484 C       7      r7    -0.0003
   1534 C           -0.8359    -8.8500   -20.3963 C       7      r7    -0.0001
   1535 C           -0.2325   -10.0249   -17.4112 C       7      r7    -0.0016
   1536 C           -0.3296    -7.2479   -16.0960 C       7      r7    -0.0011
   1537 C            0.1345    -8.1731   -19.5656 C       7      r7     0.0008
   1538 C            0.3604   -10.3501   -16.1456 C       7      r7    -0.0005
   1539 C            0.6422   -10.2999   -18.4830 C       7      r7    -0.0036
   1540 C            0.4115    -6.7403   -19.7170 C       7      r7     0.0020
   1541 C            1.1369    -9.1013   -19.0955 C       7      r7     0.0009
   1542 C            2.3903    -8.6207   -18.7532 C       7      r7     0.0042
   1543 C            2.6454    -7.2604   -18.8062 C       5      r5     0.0025
   1544 C            3.5087    -9.4957   -18.5665 C       7      r7     0.0039
   1545 C            3.4365   -10.7921   -19.0412 C       7      r7     0.0027
   1546 C            4.5517   -11.1488   -19.8349 C       6      r6     0.0057
   1547 C            4.7384    -8.8902   -18.2917 C       6      r6     0.0064
   1548 C            4.8719    -7.5252   -18.1154 C       6      r6     0.0058
   1549 C            5.8681   -10.7258   -19.3992 C       6      r6     0.0091
   1550 C            5.9451    -9.6624   -18.4483 C       6      r6     0.0037
   1551 C            6.0776    -7.1224   -17.5116 C       6      r6     0.0012
   1552 C            7.0019   -11.0547   -20.1041 C       5      r5    -0.0046
   1553 C            7.1726    -8.0559   -17.1927 C       6      r6     0.0010
   1554 C            7.2292    -9.2729   -17.9174 C       6      r6     0.0018
   1555 C            8.2572   -10.4897   -19.7495 C       5      r5     0.0056
   1556 C            8.2733    -7.5380   -16.3214 C       7      r7    -0.0007
   1557 C            8.5016    -9.8361   -18.5290 C       6      r6     0.0001
   1558 C            9.6324    -7.0942   -16.7456 C       7      r7     0.0009
   1559 C            9.8644    -9.3030   -18.3275 C       6      r6     0.0011
   1560 C           10.4384    -9.3288   -16.9471 C       0      r0     0.0002
   1561 C           10.6379   -10.7904   -16.6409 C       7      r7    -0.0004
   1562 C           10.6692    -8.0328   -16.3462 C       7      r7    -0.0021
   1563 C           10.8057    -9.0433   -19.4360 C       7      r7     0.0005
   1564 C           12.0480    -8.3594   -19.1934 C       7      r7    -0.0011
   1565 C           12.0591    -7.5531   -15.9537 C       7      r7    -0.0010
   1566 C           12.1213    -7.0349   -19.8516 C       7      r7    -0.0007
   1567 C           12.5621   -11.1293   -18.3383 C       5      r5     0.0017
   1568 C           13.2189    -8.7191   -18.3222 C       0      r0     0.0005
   1569 C           13.6353   -10.0940   -18.0838 C       0      r0     0.0027
   1570 C           13.9488    -7.5822   -17.6861 C       0      r0     0.0002
   1571 C           14.8977   -10.4424   -17.3501 C       6      r6     0.0022
   1572 C           15.1419    -6.9745   -18.2791 C       7      r7    -0.0001
   1573 C           15.9127    -8.2409   -20.2024 C       7      r7     0.0016
   1574 C           16.0920   -11.1399   -17.8270 C       6      r6     0.0005
   1575 C           16.2632    -7.7549   -18.8781 C       7      r7     0.0006
   1576 C           17.2558   -11.2982   -16.8980 C       5      r5     0.0000
   1577 C           17.6239    -8.1626   -18.5152 C       5      r5     0.0005
   1578 C           18.0621    -9.1856   -19.4763 C       7      r7    -0.0007
   1579 C           18.0210    -7.2911   -16.1668 C       6      r6    -0.0004
   1580 C           18.5244    -7.9100   -17.4080 C       6      r6     0.0009
   1581 C           18.9863   -10.2542   -19.0956 C       7      r7    -0.0010
   1582 C           19.7375    -8.7441   -17.2503 C       5      r5     0.0003
   1583 C           19.9017    -9.9719   -18.0118 C       5      r5    -0.0002
   1584 C           20.9572   -10.8747   -17.5905 C       5      r5    -0.0015
   1585 C           21.0297    -8.6290   -16.5939 C       5      r5     0.0010
   1586 C           21.7968    -9.9532   -16.6496 C       5      r5    -0.0003
   1587 C           21.8082    -7.4158   -16.3822 C       6      r6     0.0012
   1588 C           23.1409    -9.9133   -17.4693 C       6      r6    -0.0005
   1589 C           23.1693    -7.4879   -16.7242 C       6      r6     0.0004
   1590 C           23.5713   -10.9948   -18.3138 C       6      r6    -0.0019
   1591 C           23.7978    -8.7197   -17.2015 C       6      r6     0.0001
   1592 C           24.6111   -10.6164   -19.3239 C       5      r5    -0.0006
   1593 C           24.9747    -8.6230   -17.9158 C       6      r6     0.0003
   1594 C          -25.1900    -6.4185   -17.1109 C       6      r6     0.0000
   1595 C          -24.6311    -4.0879   -16.5552 C       6      r6    -0.0001
   1596 C          -24.2203    -5.3805   -16.9874 C       6      r6     0.0003
   1597 C          -23.6502    -2.9850   -16.5121 C       6      r6    -0.0002
   1598 C          -22.8448    -5.6331   -17.2636 C       7      r7     0.0001
   1599 C          -22.4963    -6.8044   -17.9180 C       7      r7     0.0002
   1600 C          -22.2435    -3.3200   -16.5179 C       7      r7    -0.0002
   1601 C          -22.2238    -2.7463   -19.8818 C       6      r6    -0.0002
   1602 C          -21.8337    -4.6734   -16.7399 C       7      r7     0.0006
   1603 C          -20.2299    -2.6812   -18.1736 C       6      r6     0.0000
   1604 C          -20.0206    -3.9474   -20.3233 C       5      r5     0.0006
   1605 C          -19.9838    -2.5662   -16.6896 C       0      r0     0.0002
   1606 C          -19.5189    -3.5913   -19.0333 C       6      r6     0.0008
   1607 C          -18.7189    -2.8442   -15.9493 C       7      r7     0.0008
   1608 C          -18.0258    -3.5175   -18.8765 C       5      r5     0.0005
   1609 C          -17.4571    -5.9843   -19.5713 C       0      r0    -0.0011
   1610 C          -17.1219    -4.6430   -19.0076 C       5      r5    -0.0009
   1611 C          -16.7908    -5.7912   -16.6041 C       7      r7    -0.0006
   1612 C          -15.9487    -2.7872   -18.2033 C       5      r5    -0.0001
   1613 C          -15.7914    -4.2408   -18.5858 C       5      r5    -0.0017
   1614 C          -15.4167    -5.1934   -16.4698 C       7      r7     0.0002
   1615 C          -14.8363    -5.0134   -17.8048 C       7      r7    -0.0009
   1616 C          -14.2404    -6.1445   -18.6414 C       7      r7    -0.0015
   1617 C          -13.0285    -5.6512   -19.3202 C       7      r7     0.0105
   1618 C          -12.2918    -3.1225   -16.3164 C       5      r5    -0.0027
   1619 C          -12.0248    -5.1688   -18.4125 C       7      r7     0.0083
   1620 C          -11.9667    -6.0667   -17.2391 C       5      r5    -0.0063
   1621 C          -11.3063    -5.4765   -15.9454 C       7      r7     0.0003
   1622 C          -10.9503    -4.1669   -18.6441 C       7      r7     0.0042
   1623 C          -10.8518    -3.1334   -19.6636 C       7      r7    -0.0000
   1624 C          -10.9103    -3.8195   -16.1739 C       7      r7    -0.0028
   1625 C          -10.0839    -4.1051   -17.4328 C       6      r6     0.0011
   1626 C          -10.0302    -6.2962   -15.8663 C       7      r7    -0.0032
   1627 C           -8.6641    -4.1926   -17.7138 C       6      r6     0.0057
   1628 C           -8.6400    -3.2945   -18.9151 C       6      r6    -0.0063
   1629 C           -7.7290    -6.1368   -16.3806 C       0      r0     0.0340
   1630 C           -7.6035    -5.1941   -17.4698 C       6      r6    -0.0435
   1631 C           -7.4880    -3.1231   -19.5965 C       6      r6     0.0149
   1632 C           -6.6363    -5.2253   -18.5239 C       6      r6     0.2744
   1633 C           -6.4846    -4.0953   -19.3527 C       6      r6    -0.0680
   1634 O           -5.6422    -6.3120   -18.6413 O       6      r6    -0.5143
   1635 C           -5.3184    -3.8129   -19.9925 C       6      r6     0.0734
   1636 C           -4.6513    -6.1201   -19.8180 C       7      r7     0.2538
   1637 C           -3.3433    -5.2595   -15.9137 C       7      r7     0.0158
   1638 O           -2.6942    -3.1318   -18.7228 O       6      r6    -0.4971
   1639 C           -2.2234    -5.9714   -16.3228 C       7      r7     0.0129
   1640 C           -1.8345    -3.4178   -16.3473 C       7      r7    -0.0367
   1641 C           -1.6555    -2.8499   -17.6201 C       6      r6     0.2421
   1642 C            1.7042    -6.3353   -19.3535 C       5      r5    -0.0001
   1643 C            2.3629    -5.0844   -19.5572 C       5      r5     0.0002
   1644 C            3.5042    -2.2952   -19.8276 C       7      r7    -0.0029
   1645 C            3.6102    -5.1970   -18.8207 C       5      r5     0.0001
   1646 C            3.6252    -2.8671   -18.5002 C       7      r7    -0.0081
   1647 C            3.8218    -6.6130   -18.5243 C       5      r5     0.0054
   1648 C            4.3317    -4.0488   -18.4611 C       7      r7     0.0002
   1649 C            5.5345    -4.0244   -17.8707 C       7      r7     0.0008
   1650 C            5.6041    -3.9253   -16.5167 C       7      r7     0.0019
   1651 C            6.1221    -5.2156   -16.1097 C       5      r5    -0.0022
   1652 C            6.4209    -4.9950   -18.4159 C       5      r5     0.0065
   1653 C            6.4936    -5.8508   -17.3380 C       5      r5    -0.0012
   1654 C            7.6045    -4.5750   -19.1660 C       5      r5     0.0014
   1655 C            8.2948    -3.4700   -18.4910 C       7      r7    -0.0005
   1656 C            8.3401    -5.1327   -20.3040 C       5      r5     0.0042
   1657 C            8.6098    -3.5129   -17.0944 C       7      r7     0.0005
   1658 C            9.1707    -4.7562   -16.4877 C       7      r7    -0.0015
   1659 C            9.4076    -3.1845   -19.3895 C       7      r7    -0.0009
   1660 C            9.5549    -4.3891   -20.2056 C       5      r5    -0.0032
   1661 C           10.0093    -5.7351   -17.1541 C       7      r7    -0.0009
   1662 C           11.2993    -5.5070   -17.9529 C       7      r7     0.0001
   1663 C           11.4118    -5.8554   -19.3800 C       6      r6    -0.0003
   1664 C           11.6662    -2.4003   -19.6035 C       6      r6     0.0017
   1665 C           12.5387    -5.4576   -17.1518 C       7      r7     0.0005
   1666 C           12.9528    -6.8397   -16.8984 C       7      r7    -0.0002
   1667 C           13.1582    -4.3059   -16.4045 C       0      r0     0.0011
   1668 C           14.5649    -4.3052   -16.6628 C       6      r6    -0.0008
   1669 C           15.2814    -5.5814   -18.7330 C       7      r7     0.0002
   1670 C           15.1148    -4.3327   -18.0343 C       6      r6     0.0007
   1671 C           15.6019    -5.2871   -20.1816 C       7      r7     0.0008
   1672 C           15.9495    -2.7265   -19.8193 C       6      r6    -0.0000
   1673 C           16.1056    -3.3088   -18.4748 C       6      r6     0.0011
   1674 C           16.8222    -3.2229   -16.1460 C       6      r6    -0.0011
   1675 C           17.2916    -3.3978   -17.5394 C       6      r6     0.0010
   1676 C           18.4576    -4.1755   -17.6549 C       0      r0     0.0005
   1677 C           19.5813    -4.9483   -17.7278 C       0      r0     0.0010
   1678 C           19.8446    -5.6869   -16.3795 C       0      r0     0.0001
   1679 C           20.8465    -4.4208   -18.4193 C       6      r6     0.0007
   1680 C           21.0618    -3.1138   -17.8458 C       6      r6    -0.0002
   1681 C           21.2178    -6.0908   -16.1059 C       6      r6     0.0005
   1682 C           21.3254    -2.6911   -16.3528 C       7      r7    -0.0001
   1683 C           21.8388    -4.8294   -19.4103 C       5      r5     0.0005
   1684 C           22.2082    -5.9552   -20.2882 C       7      r7     0.0004
   1685 C           22.5766    -2.5575   -19.6717 C       7      r7    -0.0006
   1686 C           22.9176    -3.8912   -19.7790 C       7      r7    -0.0005
   1687 C           23.5290    -4.9726   -16.2914 C       7      r7     0.0003
   1688 C           23.9489    -6.2843   -16.6866 C       6      r6     0.0000
   1689 C           24.0420    -2.4724   -16.4564 C       7      r7     0.0001
   1690 C           24.4332    -3.8713   -16.3231 C       7      r7    -0.0005
   1691 C          -25.1490    -0.4032   -19.9635 C       5      r5     0.0002
   1692 C          -24.0058    -1.6023   -16.6848 C       7      r7     0.0003
   1693 C          -23.6692    -0.7157   -20.1124 C       5      r5     0.0012
   1694 C          -23.4670    -2.0882   -20.4311 C       5      r5    -0.0008
   1695 C          -22.9166     0.7412   -16.6089 C       7      r7     0.0014
   1696 C          -22.9017    -0.6359   -17.0762 C       7      r7    -0.0004
   1697 C          -22.5138    -0.0263   -19.4427 C       6      r6     0.0014
   1698 C          -22.1009    -0.8880   -18.2735 C       6      r6     0.0001
   1699 C          -21.8102     1.7693   -16.9417 C       7      r7     0.0015
   1700 C          -21.7609     0.8385   -20.2465 C       6      r6     0.0005
   1701 C          -21.5269    -2.1673   -18.7242 C       6      r6    -0.0005
   1702 C          -21.1397     1.8917   -19.4915 C       6      r6     0.0010
   1703 C          -20.8518     1.5556   -18.0367 C       0      r0    -0.0014
   1704 C          -19.6784     0.7261   -17.8554 C       5      r5    -0.0002
   1705 C          -19.1500     0.1695   -16.5938 C       5      r5     0.0003
   1706 C          -18.7839     0.0310   -18.8211 C       5      r5     0.0002
   1707 C          -18.4181     0.6454   -20.0864 C       0      r0    -0.0001
   1708 C          -17.8320    -0.9649   -18.1891 C       5      r5     0.0007
   1709 C          -18.0668    -0.7145   -16.7372 C       5      r5     0.0005
   1710 C          -17.5779     1.9145   -19.8652 C       0      r0     0.0007
   1711 C          -17.3244    -2.2779   -18.5791 C       5      r5     0.0005
   1712 C          -17.1319     2.0682   -18.4532 C       7      r7     0.0013
   1713 C          -15.6977     2.1563   -18.2409 C       7      r7    -0.0006
   1714 C          -14.9143    -1.9213   -18.4782 C       0      r0    -0.0014
   1715 C          -14.7443     1.3116   -19.0244 C       7      r7     0.0000
   1716 C          -14.8120     0.0116   -19.6796 C       7      r7     0.0006
   1717 C          -14.0298    -1.1412   -18.7480 C       7      r7    -0.0007
   1718 C          -13.4646     1.8785   -18.7719 C       7      r7    -0.0007
   1719 C          -12.7020    -1.0362   -18.0227 C       7      r7    -0.0019
   1720 C          -12.3464    -1.7472   -16.7426 C       7      r7    -0.0017
   1721 C          -12.0960     1.3491   -18.8523 C       7      r7     0.0016
   1722 C          -11.7532     0.0335   -18.3775 C       7      r7     0.0012
   1723 C          -10.7050     0.6449   -16.2233 C       7      r7     0.0027
   1724 C          -10.3974    -0.1091   -17.6589 C       7      r7    -0.0016
   1725 C          -10.0903     1.9365   -16.2314 C       5      r5     0.0066
   1726 C           -9.7568    -2.3045   -19.0791 C       6      r6    -0.0013
   1727 C           -9.7423    -1.5133   -17.8695 C       6      r6    -0.0037
   1728 C           -9.6497     2.1663   -18.7926 C       6      r6    -0.0006
   1729 C           -9.3825     0.8469   -18.3870 C       6      r6    -0.0021
   1730 C           -8.4307    -1.5172   -17.2262 C       6      r6    -0.0017
   1731 C           -7.9716     0.5438   -18.3477 C       5      r5    -0.0023
   1732 C           -7.4048    -0.7400   -17.9138 C       5      r5    -0.0037
   1733 C           -6.8626     1.4832   -18.4624 C       7      r7    -0.0051
   1734 C           -6.0110    -0.5980   -17.4945 C       5      r5     0.0143
   1735 C           -5.6683    -0.9516   -16.1444 C       6      r6     0.0051
   1736 C           -5.6574     0.7915   -17.9868 C       7      r7     0.0030
   1737 C           -4.4697     1.5247   -17.6345 C       7      r7    -0.0287
   1738 C           -3.2103     1.5114   -18.4132 C       5      r5     0.2339
   1739 C           -2.6910    -2.0889   -19.7719 C       5      r5     0.2614
   1740 O           -1.9102     1.1871   -17.7125 O       5      r5    -0.4921
   1741 C           -1.6191    -1.1826   -19.9766 C       5      r5    -0.0514
   1742 C           -1.0406     1.9127   -18.6789 C       5      r5     0.2416
   1743 C           -0.6339    -1.8233   -17.7919 C       7      r7    -0.0383
   1744 C           -0.4876    -0.9945   -18.9954 C       7      r7     0.0541
   1745 C            0.0354    -1.5197   -16.4994 C       7      r7     0.0180
   1746 C            0.2242     1.4791   -19.1932 C       7      r7    -0.0441
   1747 C            0.5435     0.0294   -19.0820 C       7      r7     0.0179
   1748 C            1.3075    -0.8209   -16.5234 C       7      r7     0.0090
   1749 C            1.9176    -0.3951   -18.8731 C       7      r7    -0.0026
   1750 C            2.2549    -1.0517   -17.6375 C       7      r7     0.0238
   1751 C            3.0380     0.1466   -19.7663 C       7      r7     0.0047
   1752 C            3.3280    -2.0244   -17.4290 C       7      r7     0.0183
   1753 C            3.3745     1.5544   -20.0160 C       7      r7     0.0023
   1754 C            3.7305    -2.3611   -16.1161 C       7      r7    -0.0008
   1755 C            3.9787    -0.9125   -20.0676 C       7      r7    -0.0009
   1756 C            4.7154     1.5611   -16.9701 C       5      r5     0.2138
   1757 C            4.7815     1.8971   -20.2569 C       7      r7    -0.0023
   1758 C            5.3324     1.2721   -18.1548 C       0      r0    -0.0373
   1759 C            5.4047    -0.9726   -20.3149 C       7      r7     0.0025
   1760 C            5.8818     1.2614   -19.4622 C       7      r7     0.0142
   1761 C            6.3617     0.0185   -20.1027 C       7      r7     0.0015
   1762 C            8.1575     0.2033   -17.1455 C       6      r6     0.0018
   1763 C            8.5611    -2.1507   -16.5496 C       7      r7     0.0011
   1764 C            8.7221    -1.0535   -17.5343 C       7      r7     0.0014
   1765 C            8.9429     1.4292   -17.3918 C       6      r6    -0.0004
   1766 C            9.7965    -0.8561   -18.5722 C       7      r7     0.0001
   1767 C           10.3937     1.0014   -17.3498 C       6      r6    -0.0035
   1768 C           10.3059    -2.1289   -19.0784 C       7      r7    -0.0008
   1769 C           10.5892     0.3992   -18.6670 C       6      r6    -0.0019
   1770 C           10.6668     1.3504   -19.8358 C       6      r6    -0.0029
   1771 C           10.7166     0.1248   -16.2059 C       6      r6    -0.0022
   1772 C           11.7552    -0.9918   -16.3562 C       6      r6    -0.0014
   1773 C           12.5855    -0.9264   -17.4314 C       0      r0    -0.0007
   1774 C           12.7856    -1.4896   -19.7098 C       7      r7     0.0015
   1775 C           13.2681    -0.6882   -18.5730 C       7      r7    -0.0012
   1776 C           14.6844    -0.0938   -18.4208 C       7      r7    -0.0023
   1777 C           15.2492    -0.0269   -19.7688 C       7      r7    -0.0000
   1778 C           15.4313    -0.5407   -17.3276 C       0      r0    -0.0007
   1779 C           16.0108    -1.2454   -20.1823 C       0      r0    -0.0004
   1780 C           16.0569    -1.0398   -16.4910 C       0      r0     0.0005
   1781 C           17.6407     1.3112   -18.7006 C       6      r6     0.0008
   1782 C           18.1151     1.0694   -20.0279 C       6      r6     0.0020
   1783 C           18.6290     1.9889   -16.4594 C       5      r5    -0.0018
   1784 C           18.6144     1.0736   -17.5990 C       6      r6    -0.0019
   1785 C           19.4179    -0.1554   -17.5452 C       6      r6    -0.0001
   1786 C           19.5631     0.7226   -19.9573 C       6      r6    -0.0022
   1787 C           19.9966    -0.1931   -18.8825 C       6      r6    -0.0019
   1788 C           20.3489    -0.4238   -16.4369 C       6      r6    -0.0005
   1789 C           21.2032    -0.9035   -19.1649 C       5      r5    -0.0002
   1790 C           21.5818     1.8169   -16.4461 C       0      r0    -0.0027
   1791 C           21.6315    -2.1726   -18.7415 C       5      r5     0.0001
   1792 C           21.6126     0.3421   -16.6535 C       6      r6     0.0006
   1793 C           22.2474    -0.5080   -20.1237 C       5      r5    -0.0003
   1794 C           22.7274    -1.8873   -16.3274 C       7      r7    -0.0004
   1795 C           22.8291    -0.4533   -16.3577 C       5      r5    -0.0000
   1796 C           23.2095    -1.5764   -20.3148 C       7      r7     0.0002
   1797 C           23.9115     1.7235   -19.3523 C       0      r0     0.0000
   1798 C           24.2582    -0.1231   -16.4512 C       7      r7     0.0004
   1799 C           24.6021     0.8118   -19.5532 C       0      r0     0.0078
   1800 C           25.0228    -1.3714   -16.6069 C       7      r7    -0.0005
   1801 C          -24.9140     5.4880   -17.3637 C       6      r6     0.2762
   1802 C          -24.3841     5.0768   -16.1915 C       5      r5    -0.0245
   1803 C          -24.5138     6.6508   -17.9243 C       6      r6    -0.0611
   1804 C          -20.5904     3.0448   -20.2681 C       6      r6    -0.0002
   1805 C          -19.9263     4.2935   -19.8870 C       6      r6    -0.0014
   1806 C          -19.6564     4.5903   -16.8967 C       6      r6    -0.0011
   1807 C          -19.5368     6.0361   -16.7562 C       6      r6    -0.0007
   1808 C          -19.3335     6.7431   -18.0600 C       6      r6    -0.0030
   1809 C          -18.8238     3.6673   -17.7239 C       0      r0     0.0001
   1810 C          -18.6875     4.1861   -19.1202 C       0      r0    -0.0002
   1811 C          -17.9596     2.5609   -17.3417 C       7      r7     0.0011
   1812 C          -17.4207     4.8856   -19.4531 C       7      r7     0.0019
   1813 C          -17.1738     6.2788   -19.2110 C       7      r7     0.0018
   1814 C          -16.6285     4.1804   -20.4419 C       7      r7     0.0014
   1815 C          -16.0362     6.8644   -19.7670 C       7      r7     0.0001
   1816 C          -15.3688     3.7660   -16.2833 C       7      r7    -0.0006
   1817 C          -15.0332     3.2938   -17.6320 C       7      r7    -0.0005
   1818 C          -14.9247     6.1100   -19.6064 C       7      r7     0.0011
   1819 C          -14.3026     6.2307   -18.3502 C       6      r6    -0.0005
   1820 C          -13.7074     3.2264   -18.2385 C       5      r5    -0.0018
   1821 C          -13.0250     5.6097   -18.3491 C       6      r6    -0.0021
   1822 C          -12.7335     4.2461   -18.5214 C       6      r6    -0.0021
   1823 C          -12.1073     6.5403   -18.5933 C       5      r5    -0.0011
   1824 C          -11.4309     3.7716   -18.9651 C       6      r6    -0.0009
   1825 C          -11.1015     2.4097   -18.9706 C       6      r6     0.0007
   1826 C          -10.7878     6.1435   -18.8428 C       5      r5    -0.0008
   1827 C          -10.4313     4.7502   -18.8017 C       6      r6    -0.0018
   1828 C           -9.0235     4.5791   -18.7660 C       6      r6    -0.0016
   1829 C           -8.7901     6.8311   -17.8837 C       6      r6     0.0288
   1830 C           -8.6007     3.1856   -18.7460 C       6      r6    -0.0021
   1831 C           -8.3028     5.5513   -18.0658 C       6      r6    -0.0049
   1832 C           -7.5805     4.8616   -15.7841 C       6      r6     0.0206
   1833 C           -7.2446     5.0488   -17.2067 C       6      r6    -0.0001
   1834 C           -7.2301     2.8711   -18.3750 C       7      r7    -0.0025
   1835 C           -6.4415     3.8982   -17.6660 C       7      r7    -0.0034
   1836 C           -5.3705     3.7209   -16.7035 C       7      r7    -0.0064
   1837 C           -5.1404     4.7567   -15.6742 C       7      r7    -0.0023
   1838 C           -4.7327     2.4075   -16.4786 C       7      r7     0.0209
   1839 C           -3.8671     2.6516   -20.7428 C       7      r7     0.0122
   1840 C           -3.1284     2.2786   -19.5464 C       5      r5    -0.0490
   1841 C           -1.9723     5.9005   -16.1934 C       5      r5     0.0003
   1842 C           -1.7403     2.7755   -19.5326 C       5      r5    -0.0408
   1843 C           -1.1625     3.7385   -20.3826 C       7      r7     0.0050
   1844 C           -0.7147     5.1700   -16.3343 C       5      r5    -0.0018
   1845 C           -0.2604     6.2979   -19.8309 C       7      r7    -0.0005
   1846 C            0.3222     3.8432   -20.0407 C       7      r7    -0.0102
   1847 C            0.5425     5.6063   -16.8781 C       6      r6    -0.0018
   1848 C            0.7183     5.1841   -19.8438 C       7      r7     0.0027
   1849 C            1.0279     2.5635   -19.7827 C       7      r7     0.0039
   1850 C            1.6867     4.7935   -16.8755 C       7      r7    -0.0009
   1851 C            1.7299     3.5430   -16.2177 C       7      r7     0.0103
   1852 C            2.0406     5.5504   -19.1684 C       7      r7    -0.0021
   1853 C            2.4297     2.6614   -20.1520 C       7      r7    -0.0007
   1854 C            2.5115     5.0948   -17.9488 C       7      r7     0.0034
   1855 C            2.8808     2.7181   -16.2292 C       7      r7    -0.0446
   1856 C            3.1485     5.2734   -20.0323 C       7      r7    -0.0011
   1857 C            3.8520     5.2880   -17.6559 C       7      r7    -0.0024
   1858 C            4.0830     2.8337   -16.8957 C       7      r7    -0.0293
   1859 C            4.3187     6.2076   -20.2291 C       7      r7    -0.0022
   1860 C            4.5068     6.4309   -17.0152 C       7      r7    -0.0027
   1861 C            4.5696     4.1147   -17.2896 C       7      r7     0.0057
   1862 C            5.8861     4.3725   -16.7253 C       5      r5    -0.0053
   1863 C            5.9888     5.7864   -16.8364 C       5      r5    -0.0001
   1864 C            7.1369     6.5393   -16.5339 C       6      r6     0.0007
   1865 C            7.4433     6.4882   -19.8759 C       7      r7    -0.0007
   1866 C            7.6750     2.7678   -15.9651 C       6      r6    -0.0000
   1867 C            8.5852     6.1213   -16.7809 C       6      r6    -0.0057
   1868 C            8.5423     2.8124   -17.1646 C       6      r6     0.0007
   1869 C            9.2541     6.6351   -17.9249 C       6      r6     0.0009
   1870 C            9.6862     3.7449   -17.2511 C       6      r6    -0.0054
   1871 C            9.7223     2.4678   -20.1011 C       6      r6    -0.0019
   1872 C           10.0961     3.8689   -19.7642 C       6      r6    -0.0037
   1873 C           10.1082     4.3789   -15.9874 C       6      r6     0.0061
   1874 C           10.4195     4.2220   -18.3715 C       6      r6    -0.0028
   1875 C           11.5502     5.1904   -18.0063 C       6      r6    -0.0017
   1876 C           12.0159     6.3186   -18.9126 C       6      r6    -0.0016
   1877 C           12.3063     5.0443   -16.8229 C       7      r7    -0.0035
   1878 C           13.5302     5.9639   -19.1214 C       6      r6     0.0023
   1879 C           13.6802     5.6161   -16.6969 C       7      r7    -0.0010
   1880 C           14.0523     4.7299   -19.6567 C       5      r5     0.0085
   1881 C           14.2794     6.6201   -17.9362 C       6      r6    -0.0008
   1882 C           14.6501     2.3580   -20.3298 C       7      r7     0.0049
   1883 C           15.3903     4.4451   -19.2675 C       5      r5     0.0193
   1884 C           15.7366     3.0396   -19.5732 C       5      r5     0.0114
   1885 C           15.7816     6.5730   -17.8467 C       5      r5     0.0016
   1886 C           16.2221     5.3181   -18.4384 C       5      r5     0.0049
   1887 C           16.6292     2.3884   -18.5662 C       6      r6    -0.0016
   1888 C           17.0021     3.3151   -17.5205 C       6      r6    -0.0023
   1889 C           17.2908     4.7665   -17.6622 C       5      r5    -0.0010
   1890 C           17.4263     2.7845   -16.2320 C       5      r5    -0.0026
   1891 C           17.5834     5.7563   -16.6192 C       5      r5    -0.0035
   1892 C           19.1646     5.6570   -19.9516 C       0      r0     0.0199
   1893 C           20.1020     5.5444   -16.5054 C       7      r7     0.0036
   1894 C           20.1448     5.2128   -19.0278 C       0      r0    -0.0055
   1895 C           20.4671     6.1049   -17.8527 C       7      r7     0.0035
   1896 C           21.1251     4.1924   -19.4477 C       6      r6     0.0049
   1897 C           21.8715     3.2507   -18.6674 C       6      r6     0.0060
   1898 C           21.7296     3.0458   -17.2123 C       0      r0     0.0117
   1899 C           22.0369     4.1568   -16.2689 C       5      r5     0.0340
   1900 C           23.1880     2.8601   -19.2635 C       6      r6     0.0610
   1901 C           23.6199     3.9610   -20.0283 C       7      r7    -0.0543
   1902 C           24.3601     4.8986   -19.3844 C       7      r7     0.2674
   1903 O           24.4756     4.6137   -17.9421 O       6      r6    -0.5211
   1904 C           25.0930     5.9217   -19.9947 C       7      r7    -0.0684
   1905 C          -24.8718     7.0243   -19.2705 C       6      r6     0.0477
   1906 C          -24.2873     8.2463   -19.8171 C       7      r7    -0.0076
   1907 C          -23.6046     7.4513   -17.2123 C       5      r5     0.0340
   1908 C          -22.9001     6.9410   -16.1192 C       5      r5    -0.0019
   1909 C          -22.9694     8.6558   -19.3747 C       7      r7     0.0016
   1910 C          -22.7383     8.3446   -17.9635 C       5      r5    -0.0056
   1911 C          -21.6790    10.8289   -16.2258 C       7      r7     0.0000
   1912 C          -21.8760     8.5601   -20.3142 C       7      r7    -0.0012
   1913 C          -21.5642     7.4238   -16.1993 C       5      r5    -0.0023
   1914 C          -21.4374     8.0049   -17.5159 C       5      r5    -0.0023
   1915 C          -20.9363     7.5068   -19.9442 C       6      r6    -0.0009
   1916 C          -20.4123    10.4200   -16.4377 C       5      r5    -0.0025
   1917 C          -20.5533     7.4041   -18.5466 C       6      r6    -0.0023
   1918 C          -19.6294    11.0560   -17.4200 C       5      r5     0.0032
   1919 C          -18.3283     9.0880   -15.9270 C       5      r5     0.0007
   1920 C          -18.3059    10.6329   -17.7632 C       6      r6     0.0050
   1921 C          -18.0046     9.3396   -17.2778 C       6      r6    -0.0008
   1922 C          -17.9749     7.1276   -18.4264 C       6      r6     0.0004
   1923 C          -17.3482    11.1910   -18.6660 C       5      r5     0.0041
   1924 C          -17.4254     8.4736   -18.1234 C       6      r6     0.0021
   1925 C          -16.5246    10.2899   -19.2653 C       5      r5     0.0016
   1926 C          -16.6550     8.9605   -19.1937 C       6      r6     0.0020
   1927 C          -15.8376     8.1702   -20.0385 C       7      r7    -0.0003
   1928 C          -15.7795    10.8771   -20.2828 C       5      r5     0.0032
   1929 C          -14.8236     7.0316   -16.0953 C       6      r6    -0.0005
   1930 C          -14.4758     7.3749   -17.4736 C       6      r6    -0.0009
   1931 C          -13.5098     9.4203   -16.3819 C       7      r7    -0.0040
   1932 C          -13.3684     8.3678   -17.3944 C       7      r7     0.0001
   1933 C          -12.6330    10.5606   -16.3534 C       7      r7    -0.0035
   1934 C          -12.1820     7.8673   -18.0882 C       7      r7    -0.0015
   1935 C          -11.1365    10.4055   -16.4848 C       7      r7    -0.0045
   1936 C          -10.8276     8.3156   -17.9788 C       7      r7     0.0040
   1937 C          -10.3615     9.6161   -17.5890 C       7      r7     0.0065
   1938 C          -10.0129     7.1768   -18.3915 C       5      r5    -0.0048
   1939 C           -9.3822    10.3259   -18.3270 C       5      r5    -0.0007
   1940 C           -8.7111     9.8575   -19.6009 C       6      r6    -0.0024
   1941 C           -7.7633     7.7174   -17.4591 C       5      r5    -0.0577
   1942 C           -7.7131     8.8057   -19.6671 C       6      r6     0.0008
   1943 C           -7.2152     8.1171   -16.2516 C       5      r5     0.2438
   1944 C           -7.0301     8.2808   -18.4912 C       5      r5     0.0049
   1945 C           -6.1986     8.9248   -16.5560 C       7      r7    -0.0420
   1946 C           -5.9822     9.0668   -17.9691 C       7      r7     0.0001
   1947 C           -5.8325    10.1966   -20.1746 C       6      r6    -0.0052
   1948 C           -5.5084    10.1666   -18.7001 C       7      r7    -0.0039
   1949 C           -4.8274    11.1590   -18.0099 C       7      r7    -0.0025
   1950 C           -1.6436     8.5311   -16.3183 C       5      r5    -0.0005
   1951 C           -1.1953     9.1463   -17.5748 C       5      r5     0.0093
   1952 C           -0.8704    10.4949   -17.2101 C       5      r5    -0.0523
   1953 C           -0.6275     8.5530   -18.7991 C       7      r7    -0.0013
   1954 C           -0.1817     7.1693   -18.6580 C       7      r7     0.0021
   1955 C            0.3450     9.0303   -19.8090 C       7      r7     0.0015
   1956 C            0.6917     6.9461   -17.4602 C       7      r7    -0.0028
   1957 C            1.6391     9.1864   -19.2227 C       7      r7     0.0035
   1958 C            1.8246     7.6991   -17.0184 C       7      r7    -0.0002
   1959 C            2.3279     8.6221   -18.0657 C       7      r7     0.0036
   1960 C            2.3204    10.1398   -19.9453 C       7      r7     0.0013
   1961 C            3.2362    10.9985   -19.3899 C       7      r7    -0.0002
   1962 C            3.7295     8.8194   -18.1974 C       7      r7     0.0013
   1963 C            4.1684    10.0867   -18.7716 C       7      r7     0.0002
   1964 C            4.8012     7.7967   -17.9331 C       7      r7    -0.0016
   1965 C            5.0422     7.0913   -19.3490 C       7      r7    -0.0011
   1966 C            5.4507    10.6177   -18.4214 C       7      r7    -0.0012
   1967 C            5.9597     8.5440   -17.1869 C       7      r7    -0.0012
   1968 C            5.8996     9.9995   -17.1725 C       7      r7    -0.0007
   1969 C            6.4065     7.5174   -19.6560 C       7      r7     0.0006
   1970 C            7.0522     8.0387   -16.4355 C       7      r7    -0.0013
   1971 C            8.7232     6.8423   -19.2677 C       7      r7    -0.0013
   1972 C            9.0500     9.2790   -20.3952 C       7      r7     0.0029
   1973 C            9.4188     7.8667   -20.1073 C       7      r7    -0.0006
   1974 C           10.2696     7.7084   -16.0211 C       6      r6     0.0100
   1975 C           10.4001     7.5029   -17.4925 C       6      r6    -0.0022
   1976 C           10.7786    11.2119   -20.3598 C       7      r7     0.0003
   1977 C           11.7236     7.6189   -18.1394 C       6      r6    -0.0022
   1978 C           12.0843    11.0561   -18.0656 C       7      r7    -0.0011
   1979 C           11.9006    10.3985   -15.8596 C       7      r7     0.0008
   1980 C           11.9558    10.8320   -19.4785 C       7      r7    -0.0030
   1981 C           12.6307    10.0272   -17.0571 C       7      r7    -0.0019
   1982 C           12.6951     8.5733   -17.6555 C       5      r5    -0.0035
   1983 C           13.2487    10.7294   -20.1605 C       7      r7    -0.0012
   1984 C           14.0268     8.2215   -18.0761 C       5      r5     0.0002
   1985 C           14.3278    10.2237   -16.9050 C       7      r7    -0.0006
   1986 C           14.9408     9.3228   -18.0802 C       7      r7    -0.0005
   1987 C           16.2869     9.6244   -18.6398 C       7      r7     0.0032
   1988 C           16.5017    10.5738   -19.7953 C       0      r0     0.0027
   1989 C           16.5982     6.8307   -16.6897 C       5      r5    -0.0031
   1990 C           16.9277    10.0270   -16.4542 C       7      r7    -0.0012
   1991 C           17.4401     9.5557   -17.7326 C       7      r7    -0.0025
   1992 C           17.8362    10.4096   -20.4257 C       0      r0     0.0003
   1993 C           18.7593    10.2099   -17.8666 C       6      r6    -0.0027
   1994 C           19.8484     9.8035   -18.6887 C       6      r6    -0.0036
   1995 C           20.1989     8.6761   -19.5849 C       7      r7    -0.0041
   1996 C           20.7411    10.9550   -19.0247 C       7      r7    -0.0019
   1997 C           21.2601     7.2976   -17.8159 C       7      r7     0.0120
   1998 C           21.3597     8.0098   -16.4934 C       7      r7     0.0061
   1999 C           21.4969     8.0638   -19.1050 C       7      r7    -0.0013
   2000 C           22.1026    10.7410   -19.3360 C       7      r7    -0.0025
   2001 C           22.2274     7.2004   -20.3036 C       7      r7     0.0025
   2002 C           22.5279     9.0088   -16.2511 C       6      r6     0.0393
   2003 C           22.5413     9.3828   -18.8958 C       5      r5     0.0007
   2004 C           23.1370     9.5663   -17.4406 C       6      r6     0.0061
   2005 C           23.5254     9.0780   -20.0077 C       5      r5     0.0035
   2006 C           23.9701    10.7593   -17.1962 C       0      r0     0.0057
   2007 C           24.5928    10.0638   -20.3078 C       6      r6    -0.0013
   2008 C          -24.1620    12.5417   -16.4690 C       7      r7    -0.0004
   2009 C          -23.0752    12.6206   -17.4796 C       7      r7    -0.0006
   2010 C          -22.8645    13.4276   -18.7134 C       7      r7    -0.0016
   2011 C          -22.5900    12.6820   -19.9298 C       0      r0     0.0171
   2012 C          -22.2109    14.7811   -18.6008 C       7      r7     0.0019
   2013 C          -21.9838    15.3005   -20.0558 C       7      r7     0.0078
   2014 C          -21.8416    11.9363   -17.1458 C       7      r7    -0.0013
   2015 C          -20.7760    14.5825   -17.8548 C       7      r7     0.0027
   2016 C          -20.5656    12.0972   -17.8165 C       7      r7     0.0050
   2017 C          -20.1438    15.6368   -17.1296 C       7      r7    -0.0026
   2018 C          -19.9315    13.4115   -18.0383 C       7      r7     0.0223
   2019 C          -18.4958    13.6095   -17.6288 C       7      r7    -0.0010
   2020 C          -18.1564    13.6939   -16.2163 C       7      r7    -0.0022
   2021 C          -17.4715    13.7773   -18.6745 C       0      r0     0.0173
   2022 C          -17.0548    12.5061   -19.2054 C       5      r5     0.0256
   2023 C          -17.0271    15.1759   -19.0584 C       0      r0     0.0146
   2024 C          -15.9492    12.2770   -20.1162 C       5      r5     0.0093
   2025 C          -15.6011    15.2942   -19.4279 C       6      r6    -0.0033
   2026 C          -15.5315    12.9655   -16.5797 C       6      r6    -0.0041
   2027 C          -15.0017    13.9140   -17.4715 C       0      r0    -0.0061
   2028 C          -14.7115    11.8481   -16.0837 C       6      r6    -0.0035
   2029 C          -14.5850    14.8344   -18.3711 C       6      r6    -0.0015
   2030 C          -13.2495    11.8380   -15.9728 C       6      r6    -0.0061
   2031 C          -13.1073    14.9910   -18.6797 C       6      r6    -0.0029
   2032 C          -12.7450    14.8738   -20.1249 C       6      r6    -0.0015
   2033 C          -12.6756    15.4693   -16.2213 C       7      r7     0.0003
   2034 C          -12.1662    15.0837   -17.5850 C       6      r6    -0.0054
   2035 C          -11.2883    12.9836   -16.7450 C       6      r6    -0.0048
   2036 C          -10.9519    14.2884   -17.2859 C       6      r6    -0.0021
   2037 C          -10.4747    13.9343   -20.3481 C       7      r7    -0.0024
   2038 C          -10.5153    11.7947   -16.9968 C       5      r5    -0.0043
   2039 C          -10.0487    15.3406   -20.1750 C       6      r6    -0.0032
   2040 C          -10.0764    14.8639   -16.2417 C       6      r6    -0.0028
   2041 C           -9.4494    12.8665   -20.3876 C       7      r7    -0.0017
   2042 C           -9.3323    11.6975   -17.7579 C       5      r5    -0.0030
   2043 C           -9.0752    15.8073   -16.6621 C       5      r5     0.0051
   2044 C           -8.1461    12.5791   -17.5706 C       6      r6    -0.0036
   2045 C           -8.0657    13.2135   -20.0824 C       6      r6     0.0030
   2046 C           -7.5250    13.2300   -18.7100 C       6      r6    -0.0141
   2047 C           -7.5483    12.8185   -16.2684 C       5      r5    -0.0001
   2048 C           -6.5291    14.3101   -18.4560 C       6      r6     0.0208
   2049 C           -6.2986    13.6336   -16.2333 C       5      r5    -0.0029
   2050 C           -6.1717    15.2814   -19.4868 C       5      r5    -0.0794
   2051 C           -5.5643    13.9980   -17.4218 C       6      r6     0.0165
   2052 C           -4.3763    12.1948   -18.7436 C       5      r5    -0.0072
   2053 C           -4.5414    11.4447   -16.5853 C       7      r7    -0.0021
   2054 C           -4.4262    12.0897   -20.1978 C       6      r6     0.0043
   2055 C           -4.1629    13.3266   -17.7917 C       5      r5     0.0058
   2056 C           -3.9831    12.7171   -16.4150 C       5      r5    -0.0017
   2057 C           -3.0637    14.2633   -18.6706 C       6      r6     0.0168
   2058 C           -2.7796    13.9278   -20.1117 C       7      r7     0.0153
   2059 C           -2.2080    15.0488   -18.0601 C       0      r0     0.0490
   2060 C           -1.3372    11.6534   -19.2417 C       0      r0    -0.0501
   2061 C           -0.7146    11.7101   -18.0384 C       6      r6     0.2397
   2062 C           -0.5663    13.0684   -15.9631 C       6      r6     0.2628
   2063 C           -0.5477    15.4893   -16.2108 C       6      r6     0.0461
   2064 O           -0.1283    12.9792   -17.3776 O       6      r6    -0.5172
   2065 C            0.5407    14.9243   -20.1007 C       6      r6    -0.0663
   2066 C            1.5031    14.2862   -19.2689 C       7      r7     0.0923
   2067 C            1.8711    13.0280   -19.7136 C       7      r7     0.0040
   2068 C            2.1410    15.0902   -18.3598 C       7      r7    -0.0665
   2069 C            2.2981    14.6630   -16.9728 C       7      r7     0.0368
   2070 C            3.0378    12.3835   -19.1362 C       7      r7     0.0093
   2071 C            3.0314    13.4127   -16.8573 C       7      r7     0.0112
   2072 C            3.7922    12.9303   -18.0076 C       7      r7     0.0016
   2073 C            4.9892    15.6303   -16.3952 C       6      r6    -0.0056
   2074 C            5.1526    13.0862   -18.6130 C       7      r7    -0.0018
   2075 C            5.5474    15.1731   -20.1017 C       0      r0    -0.0004
   2076 C            5.9695    14.9188   -17.2219 C       5      r5    -0.0011
   2077 C            5.8056    11.9240   -19.0363 C       7      r7    -0.0015
   2078 C            5.9776    14.3874   -18.7882 C       5      r5    -0.0009
   2079 C            7.0665    11.9944   -19.8977 C       5      r5    -0.0056
   2080 C            7.1229    14.3659   -16.7026 C       5      r5    -0.0020
   2081 C            7.4562    14.0086   -18.9306 C       5      r5    -0.0046
   2082 C            7.8952    13.1251   -19.9910 C       5      r5     0.0017
   2083 C            8.2910    14.4072   -17.7380 C       5      r5    -0.0019
   2084 C            9.5686    13.5577   -17.2023 C       6      r6     0.0013
   2085 C           10.3686    12.5857   -20.3155 C       7      r7     0.0018
   2086 C           10.6729    13.2505   -18.0416 C       7      r7     0.0015
   2087 C           10.8815    13.6919   -19.4410 C       7      r7    -0.0010
   2088 C           11.0915    15.1016   -19.8512 C       7      r7    -0.0017
   2089 C           11.3882    12.0841   -17.4115 C       7      r7    -0.0006
   2090 C           11.3483    11.7074   -15.9788 C       5      r5    -0.0005
   2091 C           13.4445    14.9427   -16.2261 C       7      r7    -0.0007
   2092 C           13.1975    15.7714   -17.3591 C       7      r7    -0.0024
   2093 C           13.8297    15.4653   -18.6399 C       7      r7    -0.0003
   2094 C           14.0752    14.0939   -19.2379 C       7      r7    -0.0007
   2095 C           14.0336    12.8342   -18.6245 C       7      r7     0.0021
   2096 C           14.2521    11.5946   -19.5020 C       7      r7    -0.0014
   2097 C           14.4718    12.7809   -17.1877 C       7      r7     0.0033
   2098 C           14.5119    13.9060   -16.2346 C       7      r7    -0.0011
   2099 C           15.0954    11.5324   -16.7166 C       7      r7     0.0019
   2100 C           15.5446    11.6033   -20.1459 C       7      r7    -0.0014
   2101 C           16.5084    11.4612   -16.5513 C       7      r7     0.0030
   2102 C           17.6820    12.2857   -16.8852 C       6      r6     0.0017
   2103 C           17.9020    13.7577   -16.8116 C       6      r6     0.0012
   2104 C           18.6442    15.7657   -17.9984 C       0      r0    -0.0003
   2105 C           18.8992    11.5407   -17.1523 C       6      r6    -0.0013
   2106 C           19.0267    14.4166   -17.4318 C       6      r6     0.0013
   2107 C           19.9584    11.9403   -19.7765 C       7      r7    -0.0002
   2108 C           20.0983    12.2911   -16.8685 C       5      r5     0.0000
   2109 C           20.3163    13.8079   -16.8632 C       7      r7    -0.0011
   2110 C           20.3238    13.3401   -19.9077 C       7      r7     0.0025
   2111 C           21.3974    11.7073   -16.4923 C       7      r7    -0.0019
   2112 C           21.5578    13.9323   -19.2404 C       7      r7     0.0010
   2113 C           21.6840    15.5245   -19.5073 C       7      r7     0.0011
   2114 C           21.9015    13.9214   -17.5928 C       7      r7    -0.0002
   2115 C           22.3883    12.5694   -17.0883 C       7      r7     0.0009
   2116 C           22.8097    15.0890   -17.2867 C       7      r7     0.0006
   2117 C           22.8192    13.2512   -19.7532 C       7      r7     0.0005
   2118 C           23.0520    11.7990   -19.7301 C       7      r7    -0.0006
   2119 C           23.7612    14.2974   -20.1104 C       5      r5    -0.0010
   2120 C           23.8449    12.2156   -17.0760 C       7      r7    -0.0017
   2121 C           23.8914    15.4831   -16.4001 C       7      r7    -0.0000
   2122 C           24.3867    11.5495   -20.1528 C       6      r6    -0.0024
   2123 C           24.9699    13.1508   -16.6666 C       7      r7    -0.0004
   2124 C          -22.7831    16.8647   -17.0256 C       0      r0    -0.0037
   2125 C          -22.7638    15.9290   -17.6376 C       0      r0    -0.0041
   2126 C          -22.4310    18.0423   -16.1695 C       0      r0    -0.0023
   2127 C          -22.0877    19.3973   -16.6573 C       6      r6    -0.0005
   2128 C          -21.1210    19.6864   -17.7460 C       7      r7     0.0028
   2129 C          -21.0541    16.3526   -20.3095 C       7      r7     0.0105
   2130 C          -19.9359    18.9008   -18.0750 C       7      r7     0.0193
   2131 C          -20.0275    16.9077   -19.3775 C       7      r7     0.0097
   2132 C          -19.9110    18.3229   -19.5230 C       7      r7    -0.0033
   2133 C          -19.2649    16.5235   -18.0631 C       7      r7     0.0019
   2134 C          -19.2429    17.8963   -17.3518 C       7      r7     0.0019
   2135 C          -18.6213    17.7829   -16.0334 C       7      r7     0.0319
   2136 C          -17.6883    16.0400   -18.1567 C       6      r6    -0.0013
   2137 C          -17.3976    17.0422   -15.8073 C       7      r7     0.0000
   2138 C          -16.8704    16.7406   -17.1773 C       7      r7    -0.0049
   2139 C          -16.5473    18.4743   -19.8913 C       0      r0    -0.0104
   2140 C          -16.4034    19.0726   -18.6070 C       5      r5     0.0155
   2141 C          -16.1437    17.9736   -17.6277 C       7      r7     0.0092
   2142 C          -15.2760    20.0033   -18.2865 C       5      r5     0.0119
   2143 C          -14.8847    18.2077   -16.9986 C       7      r7     0.0034
   2144 C          -14.1879    19.2043   -17.8164 C       7      r7    -0.0002
   2145 C          -12.7360    19.4643   -17.9797 C       7      r7    -0.0368
   2146 C          -12.3785    20.4743   -18.9437 C       6      r6     0.0188
   2147 C          -11.7275    18.8925   -17.1003 C       7      r7     0.2205
   2148 O          -10.3378    19.4796   -17.0915 O       5      r5    -0.5201
   2149 C          -10.2674    18.2767   -20.4922 C       6      r6     0.0065
   2150 C           -9.4364    16.2344   -19.1901 C       5      r5    -0.0001
   2151 C           -9.2962    17.6496   -19.5499 C       5      r5     0.0118
   2152 C           -8.5861    15.9743   -18.0325 C       5      r5    -0.0038
   2153 C           -8.1917    18.1552   -18.8180 C       5      r5     0.0213
   2154 C           -7.6460    17.0959   -17.9282 C       5      r5     0.0229
   2155 C           -7.6356    19.3315   -19.4778 C       0      r0     0.0214
   2156 C           -7.7382    19.6103   -16.1175 C       7      r7     0.0344
   2157 C           -7.3172    17.2754   -16.5301 C       5      r5     0.0156
   2158 C           -5.3349    16.4522   -19.5264 C       5      r5     0.1835
   2159 O           -4.4607    17.0249   -18.4220 O       5      r5    -0.4862
   2160 C           -3.3804    17.5275   -19.3827 C       5      r5     0.2279
   2161 C           -2.0655    17.9066   -19.0026 C       6      r6    -0.0433
   2162 C           -1.3124    15.8877   -17.3660 C       6      r6     0.0066
   2163 C           -1.4447    17.3507   -17.8237 C       6      r6     0.0281
   2164 C           -1.1186    18.8165   -19.8014 C       6      r6     0.0203
   2165 C           -0.3885    19.8771   -19.0368 C       6      r6     0.0124
   2166 C           -0.3132    18.0056   -17.3039 C       5      r5     0.0276
   2167 C           -0.1054    19.4649   -17.6483 C       5      r5     0.0057
   2168 C            0.5761    19.9874   -16.5107 C       5      r5     0.0030
   2169 C            0.3550    16.2483   -20.0886 C       6      r6     0.2703
   2170 C            0.5476    17.7190   -16.1669 C       5      r5    -0.0010
   2171 O            1.3949    17.0784   -19.4187 O       6      r6    -0.5445
   2172 C            2.3968    16.4000   -18.5508 C       6      r6     0.2709
   2173 C            2.9049    19.3628   -19.3457 C       7      r7     0.0380
   2174 C            3.5042    17.0575   -18.1243 C       5      r5    -0.0577
   2175 C            3.7682    18.4264   -18.6479 C       7      r7     0.0312
   2176 C            4.6410    16.8363   -17.2036 C       5      r5     0.0093
   2177 C            5.0422    18.8749   -18.1559 C       7      r7    -0.0100
   2178 C            5.3143    20.3043   -18.0721 C       7      r7    -0.0024
   2179 C            5.5767    17.8978   -17.1678 C       5      r5    -0.0006
   2180 C            6.7510    18.2842   -16.3786 C       6      r6    -0.0028
   2181 C            6.7854    15.9393   -20.5352 C       0      r0    -0.0028
   2182 C            7.2251    17.3847   -20.2634 C       6      r6    -0.0023
   2183 C            8.0453    18.0643   -17.0005 C       6      r6     0.0010
   2184 C            8.6133    16.7500   -16.6296 C       6      r6     0.0057
   2185 C            8.5206    17.6036   -19.7372 C       6      r6    -0.0008
   2186 C            8.7112    15.9271   -17.8005 C       6      r6     0.0001
   2187 C            8.9968    19.1405   -17.2628 C       6      r6    -0.0013
   2188 C            9.1128    18.9320   -19.6710 C       6      r6    -0.0014
   2189 C            9.1324    20.1744   -16.2737 C       6      r6     0.0277
   2190 C            9.2739    16.5842   -18.9449 C       0      r0     0.0002
   2191 C            9.7096    19.4628   -18.4773 C       6      r6     0.0022
   2192 C           10.3823    20.6733   -18.6133 C       6      r6     0.0016
   2193 C           10.7504    16.3833   -19.2462 C       0      r0     0.0006
   2194 C           11.7038    17.5530   -19.0712 C       6      r6    -0.0008
   2195 C           12.1464    18.0475   -17.7434 C       6      r6     0.0039
   2196 C           12.2974    18.3238   -20.1586 C       6      r6    -0.0029
   2197 C           12.5787    16.9811   -16.7962 C       5      r5     0.0048
   2198 C           12.8417    19.3523   -17.6664 C       5      r5     0.0298
   2199 C           13.1286    20.3779   -16.6614 C       5      r5    -0.0779
   2200 C           13.4297    19.1134   -19.7660 C       6      r6     0.0021
   2201 C           13.5150    19.8547   -18.6711 C       5      r5    -0.0066
   2202 C           14.2501    16.5095   -19.5842 C       5      r5    -0.0034
   2203 C           15.5526    17.1011   -19.2486 C       6      r6    -0.0012
   2204 C           16.0652    18.1767   -17.0567 C       7      r7    -0.0024
   2205 C           16.1864    16.9180   -17.8878 C       6      r6    -0.0028
   2206 C           16.1859    18.1941   -19.8902 C       6      r6    -0.0008
   2207 C           16.7285    19.1969   -17.8114 C       7      r7     0.0014
   2208 C           17.3918    16.2972   -17.8968 C       0      r0    -0.0037
   2209 C           17.2869    18.8283   -19.0984 C       6      r6    -0.0040
   2210 C           17.4638    20.3238   -17.1285 C       7      r7     0.0124
   2211 C           18.5143    19.9157   -16.1438 C       7      r7     0.0310
   2212 C           18.7726    18.9976   -19.4374 C       7      r7    -0.0026
   2213 C           19.1850    20.1162   -20.3045 C       7      r7    -0.0022
   2214 C           19.5814    16.6510   -18.9361 C       7      r7    -0.0007
   2215 C           19.7803    18.1099   -18.8309 C       7      r7    -0.0024
   2216 C           20.3004    15.9482   -19.9927 C       7      r7     0.0004
   2217 C           21.3324    18.4406   -18.7767 C       7      r7    -0.0012
   2218 C           21.6995    19.9192   -18.4941 C       7      r7    -0.0017
   2219 C           21.8415    18.1715   -20.2517 C       7      r7    -0.0005
   2220 C           22.1137    16.0344   -18.1644 C       7      r7     0.0009
   2221 C           22.1474    17.4137   -17.8221 C       7      r7    -0.0001
   2222 C           22.8493    17.7164   -16.6176 C       6      r6    -0.0011
   2223 C           23.3025    18.1927   -20.3486 C       7      r7     0.0021
   2224 C           23.9679    16.8920   -16.0567 C       6      r6    -0.0004
   2225 C           23.9941    16.8733   -20.4830 C       7      r7     0.0002
   2226 C          -24.6953    22.9351   -19.9963 C       6      r6     0.0006
   2227 C          -24.7128    22.7933   -17.2782 C       7      r7    -0.0025
   2228 C          -23.6534    23.5329   -17.8613 C       5      r5    -0.0025
   2229 C          -23.4677    23.2280   -19.3055 C       6      r6    -0.0029
   2230 C          -23.1058    24.4838   -16.9260 C       5      r5    -0.0027
   2231 C          -22.2764    23.5318   -20.2220 C       0      r0    -0.0024
   2232 C          -21.7342    21.7462   -16.0848 C       6      r6     0.0088
   2233 C          -20.9701    22.8828   -19.8543 C       6      r6    -0.0008
   2234 C          -21.1471    21.0259   -18.4151 C       7      r7     0.0018
   2235 C          -21.0038    22.0071   -17.2511 C       6      r6     0.0126
   2236 C          -20.8185    21.3960   -19.7880 C       7      r7     0.0016
   2237 C          -20.2578    23.6577   -18.8161 C       6      r6     0.0004
   2238 C          -20.1573    23.1559   -17.4277 C       6      r6     0.0103
   2239 C          -19.7978    23.9078   -16.2727 C       6      r6     0.0266
   2240 C          -18.3563   -24.9180   -20.3359 C       7      r7     0.0003
   2241 C          -17.7793   -24.9460   -17.3586 C       0      r0     0.0080
   2242 C          -17.2352    24.0967   -20.1647 C       5      r5     0.0003
   2243 C          -16.9636    23.6943   -17.6875 C       0      r0     0.0013
   2244 C          -16.7870    23.2567   -19.0950 C       6      r6     0.0067
   2245 C          -16.3309    22.9867   -16.6955 C       0      r0     0.0700
   2246 C          -15.6067    22.4447   -19.4522 C       5      r5     0.0004
   2247 C          -14.8917    21.2809   -18.9033 C       5      r5     0.0025
   2248 C          -14.7291    22.9522   -20.4728 C       5      r5    -0.0028
   2249 C          -13.5600    21.2101   -19.5449 C       5      r5    -0.0093
   2250 C          -13.3477    23.3794   -15.8169 C       5      r5    -0.0066
   2251 C          -13.1892    24.3157   -16.9311 C       7      r7    -0.0034
   2252 C          -12.1623    22.5060   -15.9214 C       5      r5     0.0084
   2253 C          -12.0052    23.9856   -17.7096 C       7      r7    -0.0070
   2254 C          -11.4768    22.7564   -17.1534 C       5      r5     0.0032
   2255 C          -11.0333    20.5659   -19.4472 C       6      r6     0.0462
   2256 C          -10.3998    21.8545   -19.7801 C       6      r6    -0.0006
   2257 C          -10.0436    22.3910   -17.3522 C       7      r7     0.0221
   2258 C           -9.4316    22.2124   -18.6642 C       7      r7     0.0093
   2259 C           -9.4123    22.1760   -16.0856 C       7      r7     0.0174
   2260 C           -7.9701    21.9797   -18.8375 C       7      r7     0.0364
   2261 C           -7.9971    21.7709   -16.2506 C       7      r7    -0.0055
   2262 C           -7.7939    20.6139   -17.1858 C       7      r7     0.0240
   2263 C           -7.6685    20.5565   -18.5706 C       7      r7     0.0297
   2264 C           -7.3802    24.2877   -17.9782 C       7      r7    -0.0042
   2265 C           -6.9660    22.9556   -18.4387 C       7      r7     0.0230
   2266 C           -5.5601    22.8020   -18.8752 C       7      r7    -0.0355
   2267 C           -5.3456    22.4223   -20.2403 C       5      r5     0.1849
   2268 C           -4.3142    23.3778   -18.3633 C       7      r7     0.0011
   2269 C           -4.1646    24.5111   -17.4278 C       7      r7     0.0007
   2270 C           -3.3363    23.0702   -19.3775 C       5      r5    -0.0360
   2271 C           -2.8320   -24.9524   -17.1069 C       7      r7    -0.0022
   2272 C           -1.9812    23.5211   -18.9755 C       6      r6     0.0213
   2273 C           -1.7990    24.1951   -17.7098 C       7      r7    -0.0082
   2274 C           -0.4944    22.3447   -16.2000 C       7      r7     0.0081
   2275 C           -0.6656    23.2133   -19.5785 C       6      r6    -0.0103
   2276 C           -0.5638    23.7570   -16.7966 C       7      r7    -0.0054
   2277 C            0.4575    20.8082   -19.7922 C       6      r6     0.0008
   2278 C            0.6489    21.4833   -16.4363 C       7      r7     0.0396
   2279 C            0.5789    23.8068   -18.9929 C       6      r6    -0.0040
   2280 C            0.7007    24.2052   -17.6276 C       7      r7    -0.0015
   2281 C            1.7965    21.4723   -19.5352 C       0      r0    -0.0013
   2282 C            1.8918    24.3955   -16.8061 C       7      r7    -0.0013
   2283 C            1.9417    23.8740   -19.6294 C       0      r0    -0.0028
   2284 C            2.0370    21.9103   -16.6405 C       7      r7     0.0118
   2285 C            2.3180    22.5644   -20.3724 C       0      r0    -0.0033
   2286 C            2.6440    20.6170   -18.7199 C       7      r7    -0.0100
   2287 C            2.6127    23.2077   -16.3384 C       7      r7     0.0222
   2288 C            3.0300    21.0057   -17.2814 C       7      r7     0.0008
   2289 C            2.8251    24.8147   -19.1346 C       0      r0    -0.0036
   2290 C            4.4221    21.1502   -17.1330 C       7      r7    -0.0008
   2291 C            4.9073    22.2468   -16.3229 C       6      r6     0.0046
   2292 C            6.2925    23.0555   -20.0519 C       5      r5     0.0013
   2293 C            6.4302    21.6415   -20.0943 C       5      r5    -0.0060
   2294 C            6.3832    21.1001   -18.6766 C       5      r5    -0.0028
   2295 C            6.3956    22.2700   -16.3381 C       6      r6    -0.0032
   2296 C            6.6851    23.2982   -18.6475 C       5      r5    -0.0047
   2297 C            6.7253    24.6036   -18.0468 C       7      r7    -0.0043
   2298 C            6.8729    22.1674   -17.7770 C       5      r5    -0.0062
   2299 C            7.5150   -24.9487   -16.8228 C       7      r7    -0.0041
   2300 C            9.8093    21.4437   -16.5287 C       6      r6     0.0317
   2301 C           10.5027    21.1404   -19.8624 C       5      r5    -0.0012
   2302 C           10.6031    21.7008   -17.6319 C       6      r6     0.0012
   2303 C           11.1200    22.2994   -20.0613 C       5      r5    -0.0046
   2304 C           11.3614    22.9247   -17.7453 C       6      r6     0.0053
   2305 C           11.3647    24.0268   -16.7562 C       6      r6     0.0125
   2306 C           12.0500    22.8661   -19.0231 C       6      r6     0.0058
   2307 C           13.0195    23.6520   -19.7698 C       7      r7     0.0029
   2308 C           14.1317    21.3279   -17.1276 C       5      r5     0.2313
   2309 C           14.3219    21.1743   -18.4389 C       5      r5    -0.0472
   2310 C           14.4510    23.4524   -19.6585 C       7      r7     0.0050
   2311 O           14.4815    22.5097   -16.2308 O       5      r5    -0.4759
   2312 C           15.1008    22.2191   -19.1551 C       6      r6     0.0309
   2313 C           15.1200    24.7625   -19.7756 C       7      r7     0.0050
   2314 C           16.5170    22.3232   -18.8111 C       5      r5     0.0036
   2315 C           16.6817    24.7110   -19.9826 C       6      r6    -0.0006
   2316 C           17.1121    23.6176   -18.9934 C       5      r5     0.0026
   2317 C           17.1894    21.6235   -17.6633 C       5      r5     0.0218
   2318 C           17.6944    22.7309   -16.8640 C       5      r5     0.0139
   2319 C           17.6123    23.9459   -17.6717 C       5      r5     0.0078
   2320 C           19.6878    21.2806   -19.5526 C       7      r7    -0.0037
   2321 C           19.9122    22.6751   -19.9410 C       7      r7    -0.0024
   2322 C           20.6247    20.8855   -18.5008 C       7      r7    -0.0025
   2323 C           20.8393    23.1653   -18.9266 C       7      r7    -0.0019
   2324 C           21.0491    23.8854   -16.1278 C       5      r5     0.0008
   2325 C           21.0661    22.1756   -17.9084 C       5      r5    -0.0010
   2326 C           21.1319    22.4510   -16.4801 C       5      r5    -0.0020
   2327 C           21.2788    24.5241   -18.5105 C       7      r7    -0.0014
   2328 C           23.0621    20.5237   -18.5152 C       5      r5     0.0003
   2329 C           23.5011    21.3560   -19.7054 C       5      r5     0.0009
   2330 C           23.8023    20.9966   -17.3017 C       7      r7    -0.0003
   2331 C           24.6685    22.0777   -19.3369 C       5      r5     0.0035
   2332 C           24.7821    21.9280   -17.9100 C       7      r7    -0.0001
   2333 C          -24.8837   -20.9219   -11.6772 C       5      r5    -0.0013
   2334 C          -24.6920   -24.8246   -12.1220 C       7      r7    -0.0068
   2335 C          -24.3038   -20.8188   -13.7583 C       7      r7    -0.0021
   2336 C          -23.7711   -24.9578   -14.5244 C       7      r7    -0.0012
   2337 C          -23.8188   -20.5524   -12.4469 C       7      r7    -0.0007
   2338 C          -23.4555   -24.2597   -11.5232 C       7      r7     0.0042
   2339 C          -22.8753   -23.0703   -12.1166 C       7      r7     0.0206
   2340 C          -22.7548   -23.9995   -14.5074 C       7      r7    -0.0033
   2341 C          -22.6016   -21.5354   -11.8924 C       7      r7    -0.0019
   2342 C          -22.3856   -23.0823   -13.4729 C       7      r7     0.0106
   2343 C          -22.1522   -23.6644   -15.7090 C       7      r7    -0.0017
   2344 C          -21.6833   -21.9809   -14.0824 C       5      r5    -0.0007
   2345 C          -21.6449   -22.3159   -15.4694 C       7      r7    -0.0011
   2346 C          -21.4692   -20.9459   -12.9749 C       7      r7     0.0025
   2347 O          -20.5075   -24.9228   -11.5998 O       7      r7    -0.5384
   2348 C          -20.1716   -20.8551   -12.2439 C       6      r6     0.0009
   2349 C          -19.3702   -24.2801   -14.1154 C       7      r7     0.0649
   2350 C          -19.0033   -23.8226   -15.4018 C       5      r5    -0.0091
   2351 C          -18.9449   -20.5793   -13.2291 C       7      r7    -0.0012
   2352 C          -19.0509   -23.1842   -13.2164 C       7      r7     0.0246
   2353 C          -18.7895   -22.3430   -15.3861 C       5      r5    -0.0011
   2354 C          -18.9034   -21.9438   -13.9855 C       7      r7    -0.0079
   2355 C          -18.6793   -23.1841   -11.7287 C       7      r7    -0.0471
   2356 C          -17.4322   -20.4654   -12.8971 C       7      r7    -0.0038
   2357 C          -16.8363   -21.4601   -12.0517 C       7      r7    -0.0030
   2358 C          -16.0415   -24.7914   -12.8150 C       5      r5    -0.0347
   2359 C          -15.7846   -24.2260   -15.0041 C       5      r5    -0.0519
   2360 C          -15.4352   -23.0558   -14.1469 C       5      r5    -0.0002
   2361 C          -15.3625   -21.4453   -11.7982 C       7      r7     0.0020
   2362 C          -15.1645   -23.6121   -12.8284 C       5      r5    -0.0017
   2363 C          -14.9575   -21.7023   -14.4885 C       5      r5     0.0015
   2364 C          -14.6420   -22.7144   -11.8042 C       7      r7     0.0057
   2365 C          -13.6815   -21.7466   -15.1661 C       5      r5     0.0082
   2366 C          -13.6918   -20.5240   -16.0187 C       5      r5     0.0081
   2367 C          -12.5528   -22.6243   -14.8521 C       6      r6     0.0199
   2368 C          -12.2615   -23.3426   -13.6075 C       6      r6     0.0022
   2369 C          -12.2176   -22.7618   -12.2428 C       6      r6     0.0462
   2370 C          -11.6209   -22.5076   -15.9822 C       6      r6     0.0064
   2371 C          -11.2180   -24.4052   -13.6112 C       6      r6    -0.0026
   2372 C          -10.5941   -23.4840   -15.8479 C       6      r6    -0.0002
   2373 C          -10.1577   -24.0655   -14.5278 C       6      r6     0.0049
   2374 C           -8.8591   -23.7435   -13.9754 C       6      r6     0.0096
   2375 C           -8.1288   -22.8754   -14.8911 C       6      r6     0.0036
   2376 C           -8.1831   -24.8115   -13.1402 C       7      r7    -0.0007
   2377 C           -7.2412   -21.7478   -14.4183 C       7      r7     0.0043
   2378 C           -7.2148   -24.6419   -11.9864 C       7      r7     0.0014
   2379 C           -7.1883   -20.6315   -15.3275 C       7      r7     0.0014
   2380 C           -6.3977   -21.7858   -13.2179 C       7      r7     0.0021
   2381 C           -6.3434   -20.6329   -12.2403 C       7      r7     0.0020
   2382 C           -5.9477   -23.9417   -12.1185 C       7      r7    -0.0010
   2383 C           -5.6055   -23.0380   -13.2237 C       7      r7     0.0008
   2384 C           -5.2491   -23.8263   -14.4012 C       7      r7    -0.0006
   2385 C           -4.9586   -23.6748   -15.8495 C       6      r6    -0.0021
   2386 C           -4.7036   -24.6661   -11.6168 C       7      r7    -0.0010
   2387 C           -2.8154   -21.3781   -12.8758 C       5      r5    -0.0004
   2388 C           -2.6260   -21.1718   -14.2826 C       5      r5     0.0011
   2389 C           -1.9036   -22.1552   -12.0272 C       6      r6    -0.0004
   2390 C           -1.4901   -23.1168   -15.8105 C       7      r7    -0.0022
   2391 C           -1.3925   -21.6824   -15.1102 C       6      r6     0.0004
   2392 C           -0.5989   -22.2687   -12.7679 C       5      r5    -0.0017
   2393 C           -0.3539   -23.9771   -15.6119 C       7      r7     0.0010
   2394 C           -0.2454   -21.9182   -14.1066 C       5      r5    -0.0015
   2395 C            0.5294   -22.9312   -12.1252 C       7      r7     0.0025
   2396 C            1.0441   -23.4881   -15.5530 C       7      r7     0.0033
   2397 C            1.0642   -22.4623   -14.4283 C       5      r5    -0.0007
   2398 C            1.6124   -22.8240   -13.0776 C       7      r7     0.0088
   2399 C            2.9695   -22.8243   -12.5315 C       7      r7    -0.0055
   2400 C            3.4918   -23.5257   -11.3666 C       7      r7     0.0465
   2401 C            3.9308   -21.9071   -13.1897 C       5      r5    -0.0006
   2402 C            4.8876   -23.2326   -11.4309 C       5      r5     0.0292
   2403 C            5.1393   -22.5086   -12.7137 C       5      r5    -0.0015
   2404 C            6.4747   -21.8723   -12.4309 C       5      r5    -0.0000
   2405 C            6.6454   -20.4662   -12.0336 C       0      r0     0.0007
   2406 C            6.7413   -24.2277   -15.7122 C       7      r7    -0.0028
   2407 C            7.0381   -22.6916   -11.3307 C       5      r5    -0.0056
   2408 C            7.4357   -21.9027   -15.9160 C       7      r7    -0.0008
   2409 C            8.8857   -22.2066   -15.6154 C       0      r0     0.0128
   2410 C            8.8355   -21.1658   -13.3988 C       0      r0     0.0262
   2411 C            9.0327   -21.3601   -11.9753 C       7      r7    -0.0030
   2412 C            9.4815   -22.1036   -14.2657 C       0      r0     0.0109
   2413 C           10.4142   -23.1310   -13.6312 C       0      r0    -0.0017
   2414 C           10.2617   -20.6573   -11.6513 C       7      r7     0.0072
   2415 C           10.9564   -24.1609   -14.5682 C       6      r6    -0.0014
   2416 C           11.0992   -23.1629   -12.2923 C       0      r0     0.0004
   2417 C           11.9780   -23.7642   -15.5866 C       7      r7     0.0050
   2418 C           12.4678   -21.2368   -12.9404 C       6      r6     0.0043
   2419 C           12.4259   -22.6560   -12.5151 C       6      r6    -0.0017
   2420 C           12.7215   -22.5056   -15.7406 C       7      r7     0.0052
   2421 C           13.3467   -20.8806   -13.9907 C       7      r7     0.0006
   2422 C           13.5042   -23.5418   -13.0376 C       6      r6    -0.0006
   2423 C           13.9622   -22.0020   -14.8678 C       7      r7    -0.0006
   2424 C           14.3488   -23.1180   -14.0229 C       6      r6     0.0001
   2425 C           15.3356   -24.0283   -14.3337 C       6      r6    -0.0030
   2426 C           15.3763   -21.4934   -15.6131 C       6      r6    -0.0024
   2427 C           15.7697   -21.6593   -11.5007 C       7      r7    -0.0032
   2428 C           15.8302   -23.1085   -11.3523 C       7      r7    -0.0048
   2429 C           16.5544   -23.6756   -14.8860 C       7      r7     0.0025
   2430 C           16.5388   -22.3780   -15.4154 C       7      r7    -0.0014
   2431 C           16.7966   -20.9414   -12.3274 C       7      r7     0.0017
   2432 C           17.1024   -23.6717   -11.8725 C       6      r6    -0.0054
   2433 C           17.5147   -24.7215   -15.4766 C       7      r7    -0.0005
   2434 C           18.1054   -21.4642   -12.6370 C       7      r7    -0.0010
   2435 C           18.2870   -22.7773   -11.8793 C       7      r7    -0.0008
   2436 C           19.1261   -20.6861   -13.2820 C       7      r7     0.0121
   2437 C           19.0535   -24.7339   -15.2517 C       7      r7    -0.0035
   2438 C           19.2389   -22.1912   -15.8903 C       7      r7    -0.0037
   2439 C           19.7565   -23.5670   -15.6308 C       7      r7    -0.0019
   2440 C           20.5062   -21.1259   -13.3810 C       7      r7     0.0038
   2441 C           21.1964   -21.9390   -12.3673 C       7      r7     0.0048
   2442 C           21.4427   -20.7675   -14.3496 C       7      r7     0.0013
   2443 C           22.5482   -21.8646   -12.6748 C       5      r5     0.0010
   2444 C           22.7111   -21.2237   -13.9609 C       7      r7    -0.0002
   2445 C           23.5824   -22.5183   -11.9129 C       6      r6     0.0005
   2446 C           23.9869   -21.1976   -14.5977 C       7      r7    -0.0012
   2447 C           24.3339   -20.6747   -15.9151 C       7      r7    -0.0017
   2448 C           24.8535   -21.9258   -12.3347 C       5      r5    -0.0021
   2449 C           25.0548   -21.5466   -13.6897 C       5      r5     0.0007
   2450 C          -24.3823   -18.2133   -13.3703 C       7      r7    -0.0041
   2451 C          -24.1335   -17.2241   -14.4476 C       7      r7    -0.0026
   2452 C          -23.9161   -20.0306   -14.9271 C       7      r7    -0.0012
   2453 C          -23.2859   -18.9228   -12.5621 C       7      r7    -0.0011
   2454 C          -23.0030   -17.0990   -15.3374 C       7      r7    -0.0005
   2455 C          -22.9533   -17.7584   -11.6735 C       7      r7     0.0083
   2456 C          -22.6101   -19.4720   -14.8217 C       7      r7     0.0002
   2457 C          -22.1859   -18.3010   -15.6199 C       7      r7     0.0008
   2458 C          -21.8547   -16.8763   -12.1541 C       5      r5     0.0060
   2459 C          -21.9438   -19.3934   -13.4583 C       7      r7     0.0004
   2460 C          -20.7421   -17.0879   -13.1088 C       7      r7    -0.0002
   2461 C          -20.6873   -18.5761   -13.5258 C       7      r7     0.0003
   2462 C          -19.9722   -15.8748   -13.4081 C       7      r7    -0.0004
   2463 C          -19.4100   -19.2059   -13.8555 C       7      r7    -0.0035
   2464 C          -19.1292   -17.4362   -15.3703 C       7      r7     0.0004
   2465 C          -18.5183   -18.1450   -14.2009 C       7      r7    -0.0039
   2466 C          -18.3717   -15.9002   -13.8525 C       7      r7    -0.0015
   2467 C          -18.2150   -16.3162   -15.3714 C       7      r7     0.0004
   2468 C          -17.9457   -17.2460   -13.2001 C       7      r7    -0.0022
   2469 C          -16.8636   -17.4620   -12.2654 C       7      r7    -0.0033
   2470 C          -16.3674   -19.6412   -13.5117 C       7      r7    -0.0026
   2471 C          -15.9101   -18.5395   -12.6080 C       7      r7     0.0009
   2472 C          -15.3975   -20.2615   -14.4569 C       5      r5     0.0046
   2473 C          -14.7638   -18.9076   -11.7297 C       7      r7     0.0110
   2474 C          -14.5503   -16.8818   -15.2631 C       6      r6     0.0001
   2475 C          -14.6249   -19.5581   -15.4722 C       5      r5     0.0038
   2476 C          -13.3485   -16.9031   -12.1306 C       0      r0     0.0361
   2477 C          -13.2305   -16.4920   -14.7077 C       7      r7     0.0066
   2478 C          -12.9980   -16.1018   -13.2631 C       7      r7    -0.0019
   2479 C          -12.2302   -16.3457   -15.7940 C       7      r7     0.0000
   2480 O          -11.0305   -20.2511   -12.8720 O       6      r6    -0.4864
   2481 C          -10.6582   -19.7132   -11.4475 C       5      r5     0.2290
   2482 C          -10.0463   -19.6352   -13.8595 C       6      r6     0.2428
   2483 C           -9.8045   -20.0949   -15.1093 C       0      r0    -0.0397
   2484 C           -9.2184   -17.8717   -12.2454 C       5      r5     0.0317
   2485 C           -9.0829   -18.5247   -13.5126 C       5      r5    -0.0541
   2486 C           -8.5482   -16.5517   -12.3402 C       5      r5    -0.0052
   2487 C           -7.7404   -16.7013   -13.5094 C       5      r5     0.0001
   2488 C           -7.7989   -18.0646   -14.0826 C       5      r5     0.0096
   2489 C           -6.5062   -18.8261   -14.1895 C       7      r7    -0.0036
   2490 C           -6.0822   -19.6709   -15.3135 C       7      r7    -0.0011
   2491 C           -6.1729   -19.2388   -12.7806 C       7      r7     0.0004
   2492 C           -5.7369   -18.1581   -11.9448 C       6      r6    -0.0011
   2493 C           -5.3328   -16.4852   -14.0362 C       0      r0    -0.0011
   2494 C           -5.2031   -16.9449   -12.6022 C       6      r6    -0.0003
   2495 C           -4.3247   -16.2156   -15.0347 C       7      r7     0.0004
   2496 C           -3.6398   -19.2413   -13.5628 C       5      r5    -0.0011
   2497 C           -3.5136   -20.1587   -14.7537 C       5      r5    -0.0002
   2498 C           -3.5522   -20.1386   -12.4341 C       5      r5     0.0003
   2499 C           -3.2382   -17.1583   -15.0526 C       7      r7    -0.0004
   2500 C           -3.1188   -17.8714   -13.7349 C       0      r0     0.0000
   2501 C           -2.2793   -17.2011   -12.7632 C       7      r7     0.0006
   2502 C           -1.4137   -17.9906   -11.8424 C       7      r7     0.0006
   2503 C           -0.2833   -17.1772   -14.6868 C       7      r7     0.0004
   2504 C           -0.0027   -18.2134   -12.1697 C       7      r7     0.0003
   2505 C            0.3193   -18.1981   -13.6934 C       7      r7     0.0012
   2506 C            1.0589   -19.0937   -14.3297 C       0      r0    -0.0001
   2507 C            1.8282   -19.9881   -15.0896 C       6      r6    -0.0018
   2508 C            3.2862   -20.1806   -14.7888 C       6      r6    -0.0016
   2509 C            3.7562   -20.4187   -13.4178 C       6      r6    -0.0034
   2510 C            4.4800   -18.5609   -12.0458 C       7      r7    -0.0020
   2511 C            4.3964   -20.2556   -15.7362 C       7      r7    -0.0012
   2512 C            4.5406   -19.1703   -13.3135 C       6      r6    -0.0001
   2513 C            4.7530   -16.3798   -15.6880 C       5      r5    -0.0000
   2514 C            4.9786   -16.0339   -13.3787 C       6      r6    -0.0003
   2515 C            5.5711   -16.2947   -12.0466 C       5      r5    -0.0002
   2516 C            5.5402   -16.7360   -14.5261 C       6      r6    -0.0006
   2517 C            5.8104   -20.0344   -15.4729 C       7      r7    -0.0023
   2518 C            5.9164   -19.2401   -14.1434 C       6      r6    -0.0048
   2519 C            6.4779   -17.8483   -14.5283 C       6      r6     0.0077
   2520 C            7.0522   -19.5819   -13.1424 C       6      r6     0.0035
   2521 C            7.8554   -17.8099   -15.0779 C       6      r6    -0.0589
   2522 C            8.2819   -19.7945   -13.8175 C       6      r6    -0.0390
   2523 C            8.7802   -18.8281   -14.7295 C       6      r6     0.2434
   2524 O           10.1262   -19.0354   -15.4496 O       6      r6    -0.5117
   2525 C           11.5126   -20.2561   -12.3383 C       7      r7     0.0162
   2526 C           12.0348   -18.9479   -12.2020 C       7      r7     0.0060
   2527 C           12.8812   -18.4921   -13.2825 C       7      r7     0.0110
   2528 C           13.2038   -19.2596   -15.8260 C       7      r7     0.0074
   2529 C           13.2137   -19.5203   -14.3624 C       7      r7     0.0161
   2530 C           13.1814   -16.2693   -12.2100 C       7      r7     0.0009
   2531 C           13.5132   -17.2108   -13.2828 C       7      r7    -0.0024
   2532 C           13.8989   -16.9119   -15.8304 C       7      r7    -0.0079
   2533 C           14.3403   -16.8105   -14.4827 C       7      r7     0.0003
   2534 C           15.5285   -16.0864   -14.2388 C       7      r7    -0.0023
   2535 C           16.3130   -19.5777   -12.2926 C       7      r7     0.0029
   2536 C           16.9654   -18.5219   -13.0802 C       7      r7    -0.0015
   2537 C           17.1600   -17.3956   -12.1868 C       6      r6     0.0327
   2538 C           17.3730   -18.3537   -15.7323 C       6      r6    -0.0040
   2539 C           17.4866   -16.0328   -12.5808 C       7      r7     0.0108
   2540 C           17.7071   -18.7642   -14.3237 C       7      r7     0.0026
   2541 C           18.9066   -19.5747   -14.2809 C       7      r7     0.0079
   2542 C           19.8701   -19.2102   -15.2984 C       6      r6     0.0013
   2543 C           19.9800   -16.0300   -13.5163 C       6      r6    -0.0401
   2544 C           20.7244   -16.8404   -12.5282 C       5      r5     0.2488
   2545 C           21.0179   -20.1146   -15.6085 C       7      r7     0.0021
   2546 C           22.0833   -17.1034   -12.6430 C       5      r5    -0.0458
   2547 C           22.7810   -16.7710   -13.8346 C       6      r6     0.0064
   2548 C           24.1726   -17.1990   -13.8041 C       5      r5    -0.0005
   2549 C           24.7842   -18.0654   -12.8102 C       7      r7    -0.0002
   2550 C           25.1776   -16.3287   -14.4185 C       7      r7    -0.0036
   2551 C          -25.1851   -14.9086   -14.2388 C       7      r7    -0.0026
   2552 C          -24.9338   -11.6847   -14.7633 C       6      r6     0.0010
   2553 C          -24.5004   -12.8954   -15.0673 C       0      r0    -0.0003
   2554 C          -24.2419   -14.1986   -15.2229 C       7      r7    -0.0013
   2555 C          -23.6388   -12.4559   -11.9745 C       7      r7    -0.0007
   2556 C          -22.5185   -13.0049   -12.8113 C       7      r7    -0.0000
   2557 C          -22.2868   -15.4970   -11.9518 C       7      r7     0.0030
   2558 C          -22.0005   -12.0288   -13.7101 C       6      r6    -0.0001
   2559 C          -21.8665   -14.3358   -12.7633 C       7      r7    -0.0000
   2560 C          -20.6900   -12.1560   -14.3361 C       5      r5    -0.0001
   2561 C          -20.5735   -14.6172   -13.3633 C       7      r7    -0.0001
   2562 C          -19.9513   -13.3849   -14.0916 C       7      r7    -0.0014
   2563 C          -18.7518   -12.9736   -14.7242 C       7      r7     0.0004
   2564 C          -18.6997   -11.6179   -15.2967 C       5      r5     0.0023
   2565 C          -17.5153   -13.8086   -14.6598 C       7      r7    -0.0001
   2566 C          -17.5089   -14.7433   -13.5215 C       7      r7    -0.0020
   2567 C          -17.4606   -11.7412   -11.8041 C       5      r5    -0.0009
   2568 C          -17.1943   -14.3528   -12.0399 C       7      r7    -0.0017
   2569 C          -16.6239   -12.9175   -12.1393 C       5      r5    -0.0002
   2570 C          -16.6137   -13.4486   -15.7653 C       6      r6     0.0011
   2571 C          -15.6349   -15.8814   -15.6055 C       0      r0    -0.0014
   2572 C          -15.4951   -14.4718   -15.5602 C       0      r0    -0.0007
   2573 C          -15.3551   -12.4707   -12.5704 C       5      r5     0.0012
   2574 C          -14.2120   -13.6934   -15.6265 C       7      r7    -0.0021
   2575 C          -14.0861   -13.0413   -13.1632 C       0      r0     0.0003
   2576 C          -13.7710   -12.7294   -14.6003 C       7      r7    -0.0024
   2577 C          -13.0571   -13.6963   -12.2825 C       0      r0     0.0025
   2578 C          -12.9783   -11.5386   -15.0141 C       7      r7     0.0007
   2579 C          -12.2633   -14.7704   -12.9450 C       7      r7     0.0015
   2580 C          -10.9923   -14.4251   -13.4972 C       7      r7     0.0004
   2581 C          -10.7616   -14.4075   -14.9658 C       7      r7    -0.0006
   2582 C          -10.2888   -13.2248   -13.0497 C       5      r5    -0.0014
   2583 C           -9.9348   -13.2889   -15.3383 C       5      r5    -0.0022
   2584 C           -9.6394   -12.6165   -14.1483 C       5      r5    -0.0007
   2585 C           -9.6806   -12.8032   -11.8007 C       6      r6    -0.0000
   2586 C           -9.0225   -11.4846   -11.7441 C       7      r7     0.0002
   2587 C           -6.8593   -13.7081   -15.7137 C       0      r0    -0.0010
   2588 C           -6.7947   -14.7132   -14.8406 C       0      r0     0.0010
   2589 C           -6.6663   -15.7322   -13.9517 C       0      r0     0.0004
   2590 C           -5.9912   -12.3713   -15.4878 C       0      r0    -0.0005
   2591 C           -5.9353   -14.8385   -11.3270 C       6      r6    -0.0005
   2592 C           -5.1141   -12.0860   -14.3011 C       7      r7    -0.0004
   2593 C           -4.8764   -15.8033   -11.7609 C       6      r6     0.0009
   2594 C           -4.3983   -13.1369   -13.6174 C       7      r7     0.0012
   2595 C           -4.3736   -12.9514   -12.1491 C       7      r7     0.0024
   2596 C           -3.3930   -13.4677   -14.6956 C       6      r6     0.0001
   2597 C           -3.5489   -11.8656   -11.6972 C       7      r7    -0.0000
   2598 C           -2.0231   -13.4865   -14.7600 C       5      r5     0.0001
   2599 C           -1.6848   -15.8461   -13.0820 C       7      r7    -0.0001
   2600 C           -1.7868   -14.7589   -12.1114 C       6      r6    -0.0002
   2601 C           -0.7982   -13.7565   -12.4526 C       6      r6    -0.0001
   2602 C           -0.7374   -13.3393   -13.8787 C       7      r7     0.0003
   2603 C           -0.5990   -15.8865   -14.0698 C       7      r7    -0.0006
   2604 C           -0.0270   -11.9192   -14.0782 C       7      r7     0.0008
   2605 C            0.1560   -14.6087   -14.5348 C       7      r7    -0.0002
   2606 C            0.4649   -14.0198   -11.7140 C       6      r6    -0.0006
   2607 C            1.0202   -11.5793   -13.0967 C       7      r7     0.0009
   2608 C            1.5449   -14.7441   -12.3854 C       5      r5     0.0003
   2609 C            1.7154   -14.5388   -13.8790 C       7      r7     0.0002
   2610 C            2.3548   -12.2425   -12.8020 C       7      r7     0.0008
   2611 C            2.4071   -13.1538   -13.9219 C       7      r7     0.0007
   2612 C            2.7838   -15.3160   -11.8919 C       5      r5     0.0012
   2613 C            2.8192   -15.5842   -14.2784 C       5      r5     0.0003
   2614 C            2.9725   -12.5810   -15.1416 C       7      r7     0.0008
   2615 C            3.5066   -15.5643   -15.5368 C       5      r5    -0.0006
   2616 C            3.5430   -15.8119   -13.0981 C       5      r5    -0.0002
   2617 C            3.6094   -11.6997   -12.2495 C       7      r7     0.0009
   2618 C            4.4404   -12.7239   -15.3203 C       7      r7    -0.0003
   2619 C            5.3383   -12.1044   -14.3540 C       7      r7    -0.0001
   2620 C            6.7055   -11.7111   -14.7664 C       7      r7    -0.0015
   2621 C            7.4567   -14.4903   -11.5659 C       6      r6    -0.0026
   2622 C            8.8082   -15.1429   -11.6881 C       6      r6     0.0017
   2623 C            9.2599   -15.0978   -13.0335 C       0      r0     0.0031
   2624 C            9.5773   -14.8141   -14.1010 C       0      r0     0.0023
   2625 C           10.0692   -11.9093   -13.8325 C       7      r7    -0.0006
   2626 C           10.1427   -14.1376   -15.2153 C       6      r6    -0.0002
   2627 C           10.8023   -12.9384   -14.5669 C       6      r6    -0.0002
   2628 C           12.2094   -12.8451   -14.6272 C       6      r6    -0.0000
   2629 C           12.9245   -11.8853   -13.7358 C       7      r7    -0.0013
   2630 C           13.9037   -15.0755   -11.8000 C       7      r7    -0.0036
   2631 C           14.2360   -11.5604   -14.2824 C       7      r7    -0.0015
   2632 C           14.4086   -13.6538   -15.7049 C       6      r6     0.0001
   2633 C           15.0462   -12.7176   -14.7526 C       6      r6    -0.0008
   2634 C           15.3494   -14.8274   -11.9804 C       7      r7    -0.0006
   2635 C           16.0331   -15.1720   -15.2815 C       7      r7    -0.0019
   2636 C           16.0841   -15.6393   -12.9482 C       7      r7    -0.0068
   2637 C           16.3365   -12.9387   -14.1064 C       6      r6    -0.0009
   2638 C           16.9149   -14.1024   -14.6600 C       7      r7     0.0019
   2639 C           17.0208   -12.2604   -12.9035 C       6      r6    -0.0020
   2640 C           17.1217   -12.9643   -11.6272 C       5      r5    -0.0016
   2641 C           18.1863   -11.5203   -13.3230 C       6      r6    -0.0014
   2642 C           18.3104   -14.4915   -14.3380 C       7      r7    -0.0038
   2643 C           18.5583   -15.6546   -13.4925 C       7      r7     0.0256
   2644 C           18.8544   -12.3914   -15.5526 C       7      r7    -0.0008
   2645 C           19.3664   -13.6662   -15.0170 C       7      r7     0.0019
   2646 C           19.4463   -11.6661   -12.5407 C       5      r5    -0.0003
   2647 C           19.4846   -12.2040   -11.2332 C       5      r5     0.0005
   2648 C           20.2242   -14.6624   -15.6142 C       7      r7     0.0070
   2649 C           20.8662   -11.7213   -13.0080 C       5      r5    -0.0006
   2650 C           20.8089   -15.5701   -14.5843 C       6      r6    -0.0014
   2651 C           21.7709   -12.2209   -11.9629 C       5      r5     0.0017
   2652 C           22.1703   -15.9129   -14.7665 C       6      r6    -0.0089
   2653 C           23.2582   -12.4686   -11.8049 C       6      r6     0.0002
   2654 C           23.3752   -12.6839   -15.4487 C       0      r0    -0.0022
   2655 C           23.9236   -13.4081   -12.6733 C       0      r0    -0.0017
   2656 C           24.0507   -11.5660   -14.8075 C       6      r6    -0.0005
   2657 C           24.5317   -14.1333   -13.3193 C       0      r0    -0.0027
   2658 C          -24.8609    -9.3029   -13.7597 C       6      r6     0.0011
   2659 C          -24.1600   -10.7186   -13.7080 C       6      r6     0.0012
   2660 C          -24.0236    -8.1973   -13.2416 C       6      r6     0.0002
   2661 C          -23.9415   -11.0742   -12.1507 C       6      r6    -0.0003
   2662 C          -23.6722    -8.5902   -11.7171 C       6      r6     0.0007
   2663 C          -23.4440    -9.9646   -11.3469 C       6      r6    -0.0004
   2664 C          -22.6534   -10.7332   -13.9334 C       6      r6     0.0002
   2665 C          -22.6222    -8.2690   -13.9317 C       6      r6     0.0004
   2666 C          -22.1683    -6.9806   -14.3816 C       5      r5    -0.0005
   2667 C          -21.8692    -9.5386   -14.1453 C       6      r6     0.0003
   2668 C          -20.4445    -9.7110   -14.5007 C       6      r6     0.0003
   2669 C          -20.0186    -9.3119   -11.6294 C       5      r5     0.0004
   2670 C          -20.0145   -11.0231   -14.9549 C       5      r5     0.0008
   2671 C          -19.5168    -8.6187   -14.0884 C       7      r7     0.0008
   2672 C          -19.2370    -8.5799   -12.6357 C       7      r7     0.0008
   2673 C          -18.7896    -7.8269   -15.0628 C       7      r7     0.0001
   2674 C          -18.4422    -7.4823   -12.0513 C       7      r7     0.0005
   2675 C          -17.0690    -7.9062   -11.8023 C       5      r5     0.0015
   2676 C          -16.6914   -10.4840   -11.8515 C       5      r5     0.0003
   2677 C          -15.9268    -8.5162   -14.0241 C       6      r6     0.0001
   2678 C          -15.8587    -7.0729   -11.9355 C       5      r5     0.0004
   2679 C          -15.7115    -7.4144   -14.9730 C       6      r6    -0.0015
   2680 C          -15.3847   -11.0041   -12.2715 C       5      r5     0.0011
   2681 C          -14.5296    -8.9973   -13.5703 C       6      r6    -0.0005
   2682 C          -14.3178   -10.0913   -12.6329 C       6      r6    -0.0006
   2683 C          -13.7805    -8.4900   -15.8859 C       7      r7     0.0000
   2684 C          -13.4357    -8.5903   -14.4634 C       7      r7    -0.0006
   2685 C          -12.9836   -10.7184   -12.6306 C       6      r6    -0.0001
   2686 C          -12.3363   -10.7621   -13.9496 C       7      r7    -0.0014
   2687 C          -12.1704    -9.3273   -14.2791 C       7      r7    -0.0004
   2688 C          -10.8581    -8.5997   -14.4545 C       0      r0    -0.0014
   2689 C          -10.6840    -7.3605   -13.7312 C       0      r0    -0.0009
   2690 C           -9.9467    -9.2577   -15.4136 C       6      r6    -0.0027
   2691 C           -9.5557   -10.6199   -15.4165 C       6      r6    -0.0014
   2692 C           -9.4134   -11.2594   -14.1873 C       6      r6    -0.0005
   2693 C           -9.5663    -7.2101   -12.7889 C       0      r0    -0.0001
   2694 C           -8.9659   -10.6844   -12.9768 C       7      r7    -0.0001
   2695 C           -8.6660    -8.2490   -12.3146 C       7      r7    -0.0009
   2696 C           -8.5074    -9.3244   -13.3067 C       7      r7    -0.0009
   2697 C           -7.3000    -9.1609   -14.1554 C       7      r7    -0.0031
   2698 C           -6.8307    -8.1588   -15.1417 C       6      r6    -0.0031
   2699 C           -6.3366    -9.8499   -13.3316 C       7      r7    -0.0008
   2700 C           -6.2107    -9.7555   -11.9082 C       7      r7     0.0006
   2701 C           -5.4097    -8.1220   -15.2786 C       6      r6    -0.0045
   2702 C           -5.0403    -9.7243   -13.8260 C       7      r7    -0.0005
   2703 C           -4.7053    -8.5273   -14.2523 C       7      r7    -0.0034
   2704 C           -4.3387    -7.7897   -11.9046 C       7      r7    -0.0011
   2705 C           -4.3317   -10.8592   -14.2859 C       7      r7    -0.0024
   2706 C           -4.0483    -7.5441   -13.4054 C       7      r7    -0.0009
   2707 C           -2.9927   -10.5376   -13.8139 C       7      r7    -0.0004
   2708 C           -2.5608    -7.9703   -13.6910 C       7      r7    -0.0023
   2709 C           -2.6271   -11.0241   -12.5217 C       7      r7     0.0000
   2710 C           -2.3000    -9.2563   -14.2158 C       7      r7    -0.0018
   2711 C           -1.5662   -10.2652   -11.9390 C       6      r6    -0.0001
   2712 C           -1.5234    -7.2921   -12.9691 C       7      r7    -0.0005
   2713 C           -0.8820    -9.6919   -14.1769 C       6      r6    -0.0001
   2714 C           -0.5267    -8.0931   -12.2793 C       7      r7    -0.0006
   2715 C           -0.3918    -9.5067   -12.7151 C       7      r7    -0.0002
   2716 C           -0.5020   -10.8311   -14.9067 C       6      r6     0.0002
   2717 C            0.9009   -10.3661   -12.4139 C       7      r7     0.0019
   2718 C            0.9524    -7.7483   -15.5285 C       7      r7    -0.0032
   2719 C            1.3388    -9.0936   -15.7153 C       7      r7    -0.0015
   2720 C            1.9938    -6.9904   -14.7788 C       7      r7    -0.0052
   2721 C            2.4875   -11.3063   -15.7365 C       5      r5    -0.0015
   2722 C            2.4709    -9.8824   -15.2928 C       5      r5     0.0010
   2723 C            3.1409    -7.7013   -14.3885 C       5      r5     0.0002
   2724 C            3.5614    -9.0088   -14.8870 C       5      r5    -0.0003
   2725 C            4.2408    -7.0924   -13.6173 C       5      r5    -0.0002
   2726 C            4.7333   -11.4439   -13.2105 C       7      r7     0.0008
   2727 C            4.9360    -9.1566   -14.3405 C       5      r5     0.0005
   2728 C            5.2673   -10.0636   -13.2381 C       7      r7     0.0004
   2729 C            5.4012    -7.7998   -14.1789 C       5      r5    -0.0014
   2730 C            6.3754    -9.6526   -12.3387 C       7      r7     0.0015
   2731 C            6.6005    -6.9807   -14.4159 C       6      r6    -0.0019
   2732 C            7.6648   -10.2016   -12.8928 C       7      r7    -0.0002
   2733 C            7.8025   -11.0925   -13.9978 C       7      r7     0.0002
   2734 C            7.9621    -7.2678   -14.9022 C       7      r7    -0.0011
   2735 C            8.6953    -9.6965   -11.9991 C       7      r7     0.0027
   2736 C            9.1625   -11.0575   -14.5939 C       7      r7    -0.0014
   2737 C            9.9524   -10.3560   -11.7388 C       7      r7     0.0059
   2738 C           10.7084   -11.2418   -12.6616 C       7      r7    -0.0033
   2739 C           12.1042   -10.9911   -12.9444 C       7      r7    -0.0026
   2740 C           12.4293    -7.4307   -14.5734 C       7      r7    -0.0009
   2741 C           12.7945   -10.2145   -11.8856 C       7      r7     0.0112
   2742 C           13.8476    -9.4598   -12.3910 C       7      r7    -0.0033
   2743 C           13.8843    -7.7700   -14.2843 C       7      r7     0.0002
   2744 C           14.0855    -9.1714   -13.8605 C       7      r7    -0.0018
   2745 C           14.4960   -10.1912   -14.7938 C       7      r7    -0.0009
   2746 C           15.1350    -9.7716   -16.0874 C       6      r6    -0.0005
   2747 C           16.2923    -7.0423   -14.5156 C       6      r6    -0.0008
   2748 C           16.5071    -9.3482   -15.6853 C       6      r6    -0.0000
   2749 C           16.8360    -7.9117   -15.5987 C       6      r6    -0.0006
   2750 C           16.7700    -7.4896   -11.7117 C       7      r7     0.0059
   2751 C           17.4722   -10.4897   -15.7372 C       5      r5    -0.0008
   2752 C           18.0558    -7.8648   -11.2306 C       7      r7    -0.0008
   2753 C           18.3296   -11.2394   -14.7958 C       5      r5    -0.0022
   2754 C           19.3089    -7.2422   -11.6673 C       7      r7     0.0011
   2755 C           21.3084   -10.9571   -14.0891 C       0      r0    -0.0014
   2756 C           22.0691   -10.3375   -15.0601 C       0      r0    -0.0001
   2757 C           23.1942    -7.9210   -11.8713 C       0      r0     0.0008
   2758 C           23.4306   -10.2700   -14.4719 C       6      r6     0.0014
   2759 C           23.6067    -7.9696   -13.1830 C       6      r6     0.0008
   2760 C           24.2107    -9.1282   -13.9879 C       6      r6     0.0016
   2761 C          -24.7740    -6.7010   -13.2563 C       7      r7    -0.0004
   2762 C          -24.2851    -4.3010   -12.3284 C       7      r7    -0.0001
   2763 C          -23.9547    -5.5254   -13.0975 C       7      r7    -0.0001
   2764 C          -23.3753    -3.2136   -11.8487 C       0      r0     0.0005
   2765 C          -22.6060    -5.7053   -13.6482 C       5      r5    -0.0001
   2766 C          -21.6576    -4.7281   -14.1145 C       7      r7    -0.0001
   2767 C          -21.1988    -2.4381   -15.8859 C       7      r7    -0.0003
   2768 C          -21.2769    -3.4057   -13.5330 C       7      r7     0.0003
   2769 C          -21.2393    -5.2045   -15.5172 C       7      r7     0.0002
   2770 C          -21.1730    -6.6556   -15.3969 C       7      r7    -0.0002
   2771 C          -20.8710    -3.3861   -12.1181 C       6      r6     0.0002
   2772 C          -19.3747    -3.5375   -11.5939 C       6      r6     0.0000
   2773 C          -19.0226    -6.1390   -12.3205 C       7      r7    -0.0004
   2774 C          -18.7265    -5.6745   -13.6535 C       7      r7     0.0002
   2775 C          -18.4358    -6.4265   -14.8360 C       7      r7     0.0005
   2776 C          -18.6283    -4.2098   -13.8700 C       7      r7     0.0002
   2777 C          -18.5163    -3.2552   -12.7997 C       7      r7     0.0009
   2778 C          -18.3571    -4.1466   -15.3080 C       7      r7     0.0010
   2779 C          -18.0244    -5.4538   -15.8600 C       5      r5     0.0008
   2780 C          -16.0703    -2.2575   -12.5002 C       5      r5    -0.0007
   2781 C          -15.6074    -3.0356   -11.3033 C       6      r6    -0.0005
   2782 C          -15.4726    -6.1173   -14.2833 C       0      r0    -0.0001
   2783 C          -15.4890    -5.9656   -12.7954 C       6      r6     0.0011
   2784 C          -14.7092    -5.2407   -15.1781 C       0      r0     0.0001
   2785 C          -14.5335    -4.0486   -11.3178 C       7      r7    -0.0003
   2786 C          -14.3926    -5.2988   -12.1070 C       7      r7     0.0003
   2787 C          -13.4029    -4.6367   -14.7747 C       6      r6    -0.0011
   2788 C          -13.2380    -6.1768   -11.7416 C       7      r7     0.0009
   2789 C          -13.1490    -3.2320   -15.1307 C       5      r5    -0.0014
   2790 C          -12.2308    -5.5491   -14.7671 C       6      r6    -0.0019
   2791 C          -11.9394    -5.8010   -12.2844 C       7      r7    -0.0005
   2792 C          -11.6814    -6.2868   -13.7106 C       0      r0    -0.0013
   2793 C          -11.6196    -4.4635   -11.9356 C       7      r7    -0.0001
   2794 C          -10.3811    -3.8681   -12.4401 C       6      r6    -0.0005
   2795 C          -10.0853    -3.3169   -14.9683 C       7      r7    -0.0005
   2796 C           -9.8832    -4.2208   -13.7963 C       7      r7    -0.0026
   2797 C           -9.5455    -3.2638   -11.4363 C       6      r6     0.0012
   2798 C           -9.0606    -2.4782   -15.2324 C       0      r0    -0.0018
   2799 C           -8.8556    -5.2279   -14.0094 C       7      r7    -0.0009
   2800 C           -8.7869    -5.7081   -15.4100 C       7      r7    -0.0068
   2801 C           -8.9018    -5.9279   -12.6802 C       0      r0    -0.0022
   2802 C           -8.2757    -2.5874   -11.8922 C       7      r7     0.0005
   2803 C           -7.9405    -5.5601   -11.6434 C       7      r7     0.0002
   2804 C           -7.1632    -3.3377   -12.5291 C       7      r7    -0.0024
   2805 C           -6.8492    -4.7401   -12.2081 C       7      r7    -0.0009
   2806 C           -6.0600    -2.8675   -13.3329 C       7      r7    -0.0028
   2807 C           -5.4242    -4.9922   -11.8861 C       7      r7    -0.0012
   2808 C           -4.8839    -3.5840   -13.8155 C       7      r7    -0.0007
   2809 C           -4.7372    -4.9378   -13.1981 C       7      r7    -0.0017
   2810 C           -4.4974    -6.1165   -14.0018 C       7      r7    -0.0046
   2811 C           -4.4181    -6.0312   -15.3986 C       7      r7     0.0063
   2812 C           -3.8732    -3.0644   -14.8036 C       7      r7    -0.0042
   2813 C           -3.1547    -3.8837   -15.7385 C       7      r7     0.0396
   2814 C           -2.8883    -5.8443   -11.4471 C       7      r7    -0.0003
   2815 C           -1.7093    -6.0031   -12.2441 C       7      r7    -0.0037
   2816 C           -0.8940    -5.9927   -15.7346 C       7      r7    -0.0044
   2817 C           -0.7640    -5.0093   -11.7936 C       5      r5     0.0042
   2818 C           -0.8014    -3.5276   -15.3055 C       7      r7    -0.0023
   2819 C           -0.3522    -4.9060   -14.9548 C       7      r7    -0.0053
   2820 C            0.5263    -4.8349   -12.3975 C       5      r5     0.0002
   2821 C            0.6325    -5.0462   -13.8903 C       7      r7    -0.0067
   2822 C            1.8396    -5.0160   -11.7766 C       5      r5     0.0054
   2823 C            1.8890    -5.7140   -14.0339 C       7      r7    -0.0046
   2824 C            2.7562    -5.3531   -12.9006 C       5      r5    -0.0024
   2825 C            4.1533    -5.7329   -13.0516 C       6      r6    -0.0001
   2826 C            4.5323    -2.6438   -13.1955 C       6      r6     0.0024
   2827 C            4.3153    -2.7214   -11.7548 C       5      r5     0.0135
   2828 C            4.7536    -3.2258   -15.6301 C       7      r7     0.0027
   2829 C            4.8630    -3.5671   -14.2191 C       6      r6    -0.0016
   2830 C            5.1560    -4.9596   -13.8105 C       6      r6    -0.0007
   2831 C            5.9784    -5.6647   -14.7440 C       6      r6    -0.0008
   2832 C            7.9233    -2.8460   -14.1359 C       7      r7     0.0015
   2833 C            8.5662    -4.1244   -13.9612 C       7      r7    -0.0002
   2834 C            8.6983    -4.7319   -12.5635 C       7      r7    -0.0025
   2835 C            9.1578    -6.4205   -14.5809 C       7      r7    -0.0021
   2836 C            9.0993    -4.9712   -15.0260 C       7      r7    -0.0000
   2837 C            9.6318    -5.8566   -12.3845 C       6      r6    -0.0011
   2838 C           10.1562    -6.6465   -13.5197 C       6      r6     0.0001
   2839 C           11.8157    -5.4390   -11.4381 C       7      r7     0.0163
   2840 C           11.6292    -6.7634   -13.5310 C       7      r7    -0.0024
   2841 C           11.9215    -2.8729   -11.5913 C       7      r7    -0.0018
   2842 C           11.8790    -2.8508   -13.0883 C       7      r7    -0.0006
   2843 C           12.4511    -5.9404   -12.6730 C       7      r7     0.0089
   2844 C           12.6536    -3.4155   -15.3240 C       5      r5     0.0001
   2845 C           12.6333    -3.7431   -13.9377 C       7      r7     0.0008
   2846 C           13.2679    -5.0011   -13.4603 C       7      r7     0.0026
   2847 C           14.6264    -5.3290   -13.8519 C       7      r7     0.0050
   2848 C           14.8962    -6.7380   -14.1951 C       7      r7     0.0005
   2849 C           15.5302    -4.2325   -14.2820 C       6      r6    -0.0006
   2850 C           15.6585    -3.9770   -15.7035 C       6      r6    -0.0013
   2851 C           16.2228    -3.2206   -13.4473 C       7      r7     0.0021
   2852 C           16.7611    -3.5437   -12.1540 C       7      r7    -0.0031
   2853 C           16.7404    -4.9068   -11.6262 C       5      r5     0.0257
   2854 C           16.6810    -6.1668   -12.3466 C       7      r7     0.0075
   2855 C           17.2016    -6.1886   -13.7467 C       7      r7    -0.0033
   2856 C           18.5946    -6.0657   -14.0300 C       7      r7    -0.0010
   2857 C           18.7431    -6.1951   -15.5069 C       6      r6    -0.0016
   2858 C           19.5918    -6.4083   -13.0075 C       7      r7    -0.0019
   2859 C           20.8823    -6.0380   -13.1653 C       0      r0    -0.0019
   2860 C           21.6492    -3.0190   -14.0155 C       5      r5     0.0001
   2861 C           21.6103    -3.6990   -15.2750 C       7      r7     0.0007
   2862 C           21.7753    -2.7319   -11.6380 C       7      r7    -0.0004
   2863 C           22.0150    -5.7662   -13.2025 C       0      r0    -0.0007
   2864 C           22.1663    -4.9566   -15.8291 C       7      r7     0.0008
   2865 C           22.4768    -3.2055   -12.8521 C       7      r7     0.0012
   2866 C           23.4143    -5.4428   -13.2503 C       7      r7     0.0006
   2867 C           23.6587    -4.0976   -12.8017 C       7      r7     0.0010
   2868 C           24.3410    -6.6016   -13.3794 C       7      r7    -0.0001
   2869 C           24.8138    -4.0195   -11.8527 C       7      r7     0.0004
   2870 C          -24.2980     0.1126   -13.2665 C       6      r6    -0.0016
   2871 C          -24.0407     1.1521   -15.7095 C       7      r7     0.0024
   2872 C          -23.8724     1.1734   -14.2290 C       7      r7    -0.0032
   2873 C          -23.8662    -1.8473   -11.8209 C       6      r6     0.0009
   2874 C          -23.2830    -0.7450   -12.6350 C       6      r6    -0.0004
   2875 C          -22.9551     2.1450   -13.7056 C       7      r7    -0.0015
   2876 C          -21.8398    -0.4242   -12.7253 C       5      r5     0.0002
   2877 C          -21.1919    -2.2370   -14.4223 C       7      r7     0.0003
   2878 C          -21.0563    -0.8953   -13.8098 C       5      r5     0.0001
   2879 C          -21.0677     0.6916   -12.0546 C       5      r5     0.0001
   2880 C          -20.0422     0.1154   -14.0770 C       5      r5     0.0005
   2881 C          -19.9881     1.0464   -12.9999 C       5      r5     0.0011
   2882 C          -19.3746     0.7000   -15.2563 C       5      r5     0.0000
   2883 C          -18.6545     1.9008   -14.9347 C       7      r7     0.0002
   2884 C          -17.8548    -1.6754   -15.5652 C       7      r7     0.0008
   2885 C          -17.4340    -2.2946   -13.0973 C       7      r7     0.0002
   2886 C          -17.2785    -1.4399   -14.2663 C       7      r7    -0.0002
   2887 C          -15.9417     0.8870   -13.7594 C       0      r0    -0.0011
   2888 C          -16.0783    -0.4492   -14.0412 C       5      r5    -0.0015
   2889 C          -15.7438     2.1606   -13.3971 C       6      r6    -0.0029
   2890 C          -15.4099     2.1358   -11.9565 C       6      r6    -0.0014
   2891 C          -15.2239    -1.4819   -13.3324 C       5      r5    -0.0007
   2892 C          -13.7102    -1.4938   -13.2658 C       0      r0    -0.0015
   2893 C          -13.3546     0.7785   -12.1823 C       0      r0     0.0017
   2894 C          -13.1690    -1.8205   -14.5970 C       5      r5     0.0019
   2895 C          -12.9647    -0.6636   -12.3016 C       0      r0     0.0059
   2896 C          -12.6627     1.7063   -13.0530 C       5      r5     0.0251
   2897 C          -12.4958    -0.9197   -15.5175 C       7      r7     0.0011
   2898 C          -12.1948     1.4933   -14.4124 C       5      r5     0.0073
   2899 C          -11.8479     0.3997   -15.3682 C       7      r7     0.0055
   2900 C          -10.5637    -0.4851   -11.7447 C       0      r0     0.0459
   2901 O          -10.0329     2.3305   -12.1835 O       7      r7    -0.5217
   2902 C           -9.1998    -0.1043   -12.1021 C       7      r7    -0.0461
   2903 C           -8.9135     1.2893   -12.3182 C       7      r7     0.2405
   2904 C           -8.1222    -1.7641   -15.8047 C       6      r6    -0.0010
   2905 C           -8.1180    -1.1457   -12.0130 C       7      r7     0.0075
   2906 C           -7.9220     1.3996   -15.4325 C       0      r0     0.0039
   2907 C           -7.5899     1.6758   -12.5598 C       7      r7    -0.0557
   2908 C           -7.1662     0.5156   -14.7834 C       5      r5    -0.0060
   2909 C           -6.7873    -0.9630   -15.1547 C       5      r5    -0.0027
   2910 C           -6.7861    -0.8009   -11.4981 C       7      r7    -0.0028
   2911 C           -6.4831     0.9429   -13.4480 C       7      r7     0.0077
   2912 C           -6.2435    -1.4222   -13.7536 C       7      r7    -0.0012
   2913 C           -6.0608    -0.4556   -12.7763 C       7      r7    -0.0070
   2914 C           -5.4907     1.9931   -13.9452 C       5      r5    -0.0032
   2915 C           -4.6178     1.8153   -15.1163 C       0      r0    -0.0009
   2916 C           -4.2877    -0.7747   -15.5722 C       5      r5     0.0185
   2917 C           -3.8502     0.5316   -15.0415 C       5      r5     0.0178
   2918 C           -3.4192    -1.6847   -14.8755 C       5      r5     0.0044
   2919 C           -2.6409     0.3531   -14.2789 C       5      r5     0.0081
   2920 C           -2.2158    -1.0236   -14.2859 C       5      r5     0.0020
   2921 C           -1.6945     1.4928   -14.0281 C       7      r7     0.0127
   2922 C           -0.7895    -1.2018   -14.1716 C       7      r7     0.0079
   2923 C           -0.3068     1.1739   -14.0878 C       7      r7     0.0137
   2924 C           -0.2374    -2.1381   -15.1522 C       7      r7    -0.0115
   2925 C            0.1536    -0.1369   -13.5843 C       7      r7    -0.0078
   2926 C            0.1878    -0.0561   -11.9991 C       6      r6     0.0075
   2927 C            0.8397     2.1898   -14.3240 C       7      r7     0.0044
   2928 C            1.8073    -0.0762   -14.1157 C       7      r7     0.0229
   2929 C            1.9389     1.1898   -14.6666 C       5      r5    -0.0526
   2930 C            2.0756    -0.8240   -15.3097 C       7      r7     0.0199
   2931 C            2.3594    -1.0977   -11.8421 C       6      r6     0.0420
   2932 C            2.7125    -0.8467   -13.1904 C       5      r5    -0.0067
   2933 C            2.9320     1.5197   -15.5389 C       5      r5     0.2476
   2934 C            3.2421    -1.5468   -15.1496 C       5      r5     0.0605
   2935 C            3.6554    -1.6515   -13.8032 C       5      r5     0.0074
   2936 O            4.0028     0.5724   -15.9428 O       5      r5    -0.4997
   2937 C            5.2512     0.2725   -11.6142 C       0      r0    -0.0031
   2938 C            5.9345    -0.0212   -12.6504 C       0      r0     0.0127
   2939 C            6.7541    -0.7615   -13.5488 C       5      r5     0.0056
   2940 C            7.0621    -0.7977   -15.0410 C       5      r5     0.0221
   2941 C            7.4055     0.3164   -15.8688 C       6      r6     0.0161
   2942 C            7.4929    -1.9153   -13.0483 C       7      r7    -0.0022
   2943 C            7.8082     1.5369   -15.1379 C       6      r6     0.0043
   2944 C            7.6995    -2.0805   -15.3618 C       7      r7     0.0001
   2945 C            8.2184    -1.6830   -11.8178 C       7      r7    -0.0014
   2946 C            9.1624     1.3254   -14.6804 C       0      r0    -0.0076
   2947 C            9.3341     0.6553   -11.8616 C       7      r7     0.0000
   2948 C           10.0415     0.1555   -14.9512 C       6      r6     0.0001
   2949 C           10.3960    -0.7661   -13.8605 C       6      r6    -0.0020
   2950 C           10.3768    -0.0087   -12.6429 C       0      r0    -0.0015
   2951 C           11.4109    -1.8675   -14.0629 C       5      r5    -0.0020
   2952 C           11.7729     0.4835   -12.3100 C       7      r7    -0.0003
   2953 C           11.9385    -2.1144   -15.3509 C       5      r5    -0.0013
   2954 C           12.1937     1.6522   -13.1116 C       7      r7    -0.0003
   2955 C           13.5347     2.1779   -13.3078 C       7      r7     0.0012
   2956 C           14.7928     1.5506   -12.8514 C       7      r7    -0.0005
   2957 C           14.8866     0.4016   -11.9147 C       7      r7    -0.0024
   2958 C           15.8988    -0.5909   -12.1210 C       7      r7    -0.0018
   2959 C           15.9750     2.2258   -13.2922 C       7      r7     0.0015
   2960 C           16.6497    -1.9395   -14.0757 C       7      r7    -0.0009
   2961 C           16.7375    -0.6574   -13.3869 C       7      r7     0.0005
   2962 C           16.7677    -1.8825   -15.5541 C       6      r6     0.0013
   2963 C           17.3947     1.6045   -12.8672 C       7      r7     0.0007
   2964 C           17.9098     0.2023   -13.4563 C       7      r7     0.0016
   2965 C           19.0966    -0.2434   -12.7698 C       5      r5     0.0010
   2966 C           20.0227    -1.3429   -12.9242 C       6      r6    -0.0003
   2967 C           20.4717    -1.6346   -15.5833 C       5      r5     0.0010
   2968 C           20.6143    -1.8368   -11.6278 C       5      r5     0.0002
   2969 C           20.6314    -1.8788   -14.1448 C       5      r5    -0.0004
   2970 C           20.8929     1.9729   -15.1239 C       7      r7    -0.0020
   2971 C           21.0421     2.0602   -12.5359 C       7      r7    -0.0018
   2972 C           21.7099     2.0307   -13.8524 C       7      r7    -0.0037
   2973 C           23.1325     1.6105   -13.9732 C       6      r6    -0.0023
   2974 C           23.6028     0.9046   -12.8363 C       5      r5    -0.0020
   2975 C           24.1742     1.9658   -15.0067 C       0      r0    -0.0056
   2976 C           24.9571     1.0497   -15.8300 C       7      r7     0.0104
   2977 C           24.8254     0.1153   -12.6736 C       5      r5    -0.0018
   2978 C          -24.9449     4.1741   -15.1491 C       7      r7     0.0340
   2979 C          -24.6015     4.6221   -13.8316 C       7      r7     0.0031
   2980 C          -23.5425     5.5629   -14.1534 C       5      r5     0.0248
   2981 C          -23.3906     5.8060   -15.5154 C       5      r5     0.0135
   2982 C          -22.8894     2.8211   -12.4539 C       5      r5    -0.0019
   2983 C          -22.0082     2.8096   -14.5567 C       7      r7    -0.0015
   2984 C          -21.8595     3.7341   -12.5692 C       5      r5    -0.0019
   2985 C          -21.5823     2.8398   -15.9873 C       7      r7     0.0001
   2986 C          -21.3071     3.7164   -13.8410 C       5      r5    -0.0018
   2987 C          -20.8827     3.9232   -11.4937 C       7      r7    -0.0009
   2988 C          -21.0185     6.5087   -13.1307 C       0      r0    -0.0033
   2989 C          -20.7200     4.0119   -16.0142 C       5      r5    -0.0015
   2990 C          -20.6013     4.5669   -14.6913 C       5      r5    -0.0014
   2991 C          -20.5438     5.9799   -14.4386 C       6      r6    -0.0007
   2992 C          -20.3977     6.6530   -15.7306 C       6      r6    -0.0024
   2993 C          -20.0909     6.1084   -12.0405 C       0      r0    -0.0010
   2994 C          -19.4942     3.4809   -11.6076 C       7      r7     0.0012
   2995 C          -19.1170     2.1906   -13.5469 C       7      r7     0.0001
   2996 C          -18.6848     3.3248   -12.8418 C       7      r7     0.0001
   2997 C          -18.6139     6.3435   -12.1453 C       0      r0     0.0008
   2998 C          -17.6802     5.7800   -13.1202 C       6      r6     0.0007
   2999 C          -17.6407     2.4556   -15.8648 C       7      r7    -0.0001
   3000 C          -17.4448     4.2046   -13.0316 C       7      r7     0.0012
   3001 C          -16.7878     4.2293   -11.6767 C       6      r6    -0.0003
   3002 C          -16.5535     6.6058   -13.5225 C       6      r6     0.0014
   3003 C          -16.5096     3.3027   -15.5219 C       7      r7     0.0011
   3004 C          -16.2020     3.5977   -14.0459 C       7      r7     0.0005
   3005 C          -15.1905     5.9500   -13.3024 C       6      r6    -0.0028
   3006 C          -15.1777     4.7020   -14.1578 C       5      r5    -0.0038
   3007 C          -14.5582     4.6476   -15.4475 C       5      r5    -0.0051
   3008 C          -13.8144     5.9894   -15.7274 C       0      r0    -0.0014
   3009 C          -12.5223     6.3594   -15.6188 C       0      r0    -0.0091
   3010 C          -12.4386     3.1117   -12.5700 C       5      r5     0.0349
   3011 C          -11.8432     3.7206   -13.6840 C       5      r5     0.0162
   3012 C          -11.6924     2.7979   -14.7115 C       5      r5     0.0160
   3013 C          -11.5080     5.8435   -12.5747 C       6      r6     0.0087
   3014 C          -11.1499     6.6411   -15.3546 C       6      r6     0.0040
   3015 C          -11.0830     4.9403   -13.6209 C       6      r6     0.0203
   3016 C          -10.9284     3.0824   -15.8211 C       5      r5    -0.0030
   3017 C          -10.4762     5.4537   -14.9057 C       6      r6     0.0215
   3018 C          -10.0717     4.2750   -15.7299 C       5      r5     0.0045
   3019 C           -8.6569     2.3909   -16.0094 C       5      r5    -0.0002
   3020 C           -8.7086     3.8613   -15.7166 C       5      r5     0.0079
   3021 C           -7.7224     4.1737   -11.9090 C       7      r7     0.0284
   3022 C           -7.1742     3.0044   -12.4779 C       7      r7     0.0225
   3023 C           -6.9056     5.3559   -11.7486 C       5      r5     0.0088
   3024 C           -6.3950     4.9614   -14.9381 C       7      r7     0.0307
   3025 C           -5.9212     3.1635   -13.1989 C       5      r5    -0.0070
   3026 C           -5.7595     5.6179   -12.5848 C       7      r7     0.0165
   3027 C           -5.8327     4.5845   -13.6218 C       7      r7    -0.0027
   3028 C           -4.0041     6.4835   -14.0070 C       7      r7    -0.0007
   3029 C           -4.0343     5.2872   -14.8556 C       7      r7     0.0030
   3030 C           -2.7037     4.9267   -15.3408 C       5      r5    -0.0024
   3031 C           -2.1781     2.8946   -13.7893 C       7      r7    -0.0052
   3032 C           -1.9337     3.7623   -14.9256 C       7      r7     0.0128
   3033 C           -1.8504     3.3687   -12.4654 C       0      r0    -0.0055
   3034 C           -1.4739     4.8113   -12.1776 C       6      r6    -0.0023
   3035 C           -1.2872     2.3814   -11.5431 C       0      r0    -0.0024
   3036 C           -0.6170     3.9485   -15.6213 C       7      r7     0.0119
   3037 C           -0.3999     5.3735   -13.0167 C       5      r5    -0.0012
   3038 C            0.5848     3.1418   -15.5249 C       7      r7     0.0054
   3039 C            0.7757     4.6543   -13.5408 C       5      r5     0.0002
   3040 C            1.0005     3.2457   -13.1693 C       0      r0    -0.0030
   3041 C            1.2764     3.0817   -11.7178 C       5      r5    -0.0018
   3042 C            1.7650     5.6524   -13.9173 C       7      r7     0.0009
   3043 C            3.2208     5.6559   -13.5821 C       7      r7    -0.0071
   3044 C            3.7654     6.6501   -15.7273 C       7      r7    -0.0035
   3045 C            3.5497     5.7510   -12.1265 C       6      r6     0.0206
   3046 C            4.2438     5.8341   -14.5795 C       7      r7    -0.0014
   3047 C            5.6265     5.6050   -14.1030 C       6      r6    -0.0003
   3048 C            5.8122     6.1626   -12.7547 C       6      r6    -0.0058
   3049 C            6.6840     4.5954   -14.3953 C       6      r6    -0.0016
   3050 C            6.6588     3.7676   -15.6112 C       0      r0     0.0029
   3051 C            7.1309     6.2799   -12.1765 C       7      r7    -0.0009
   3052 C            7.8318     4.3140   -13.5454 C       5      r5     0.0049
   3053 C            8.0731     5.2034   -12.4085 C       7      r7     0.0189
   3054 C            8.7353     3.1566   -13.4042 C       5      r5     0.0123
   3055 C            8.9682     4.4818   -11.5771 C       7      r7     0.0351
   3056 C            9.2178     3.2184   -12.0353 C       7      r7     0.0158
   3057 C            9.3707     5.5607   -15.6636 C       6      r6     0.0288
   3058 C            9.8350     2.5154   -14.1673 C       0      r0     0.0147
   3059 C           10.2646     6.5861   -15.0703 C       6      r6    -0.0529
   3060 C           10.9566     6.4679   -13.8182 C       6      r6     0.2663
   3061 O           10.9484     5.3129   -12.8665 O       6      r6    -0.5391
   3062 C           11.3074     2.4765   -13.9933 C       5      r5     0.0186
   3063 C           11.5725     4.2681   -15.7689 C       7      r7     0.0117
   3064 C           12.1430     3.3853   -14.8108 C       7      r7     0.0176
   3065 C           12.2043     5.1322   -12.0817 C       6      r6     0.2665
   3066 C           13.3869     5.8025   -12.3700 C       6      r6    -0.0722
   3067 C           13.5167     3.2858   -14.2872 C       7      r7     0.0007
   3068 C           14.3585     4.8651   -15.7214 C       7      r7    -0.0009
   3069 C           14.6834     5.7529   -11.6578 C       6      r6     0.0151
   3070 C           14.7815     3.9690   -14.6887 C       7      r7     0.0014
   3071 C           15.5684     6.8631   -11.7861 C       6      r6    -0.0029
   3072 C           16.0579     3.3796   -14.1673 C       6      r6     0.0000
   3073 C           17.3505     3.3963   -14.9032 C       5      r5    -0.0033
   3074 C           18.6829     3.0925   -14.3649 C       7      r7    -0.0020
   3075 C           18.4961     2.6283   -13.0072 C       7      r7     0.0000
   3076 C           18.8457     6.0049   -15.9222 C       7      r7    -0.0037
   3077 C           19.4622     2.2435   -15.3223 C       7      r7    -0.0017
   3078 C           19.7575     2.7732   -12.2843 C       7      r7    -0.0006
   3079 C           19.8625     5.7084   -12.5644 C       7      r7    -0.0026
   3080 C           20.9719     6.3763   -13.2205 C       7      r7    -0.0021
   3081 C           21.1464     5.0672   -15.5892 C       5      r5    -0.0086
   3082 C           21.6702     5.8549   -14.4333 C       5      r5     0.0173
   3083 C           22.9111     5.1955   -14.2393 C       7      r7     0.0249
   3084 C           22.9483     5.9575   -11.8845 C       6      r6    -0.0001
   3085 C           23.1642     4.2934   -15.3513 C       7      r7     0.0325
   3086 C           23.6246     5.2520   -12.9716 C       7      r7     0.0204
   3087 C           24.2985     3.3983   -15.3249 C       7      r7     0.0285
   3088 C           24.8610     4.5543   -12.7390 C       7      r7     0.0010
   3089 C          -24.5487     7.7671   -13.9177 C       5      r5     0.2464
   3090 C          -24.5144     8.9081   -13.2802 C       7      r7    -0.0512
   3091 C          -23.5036    11.1676   -12.7522 C       7      r7     0.0010
   3092 C          -23.4273     9.5093   -12.3916 C       7      r7     0.0114
   3093 C          -23.4725     6.9002   -13.5506 C       6      r6    -0.0542
   3094 C          -22.2203    10.4964   -14.8958 C       7      r7    -0.0002
   3095 C          -22.2241     7.3463   -12.9586 C       6      r6     0.0090
   3096 C          -22.1634     8.8116   -12.9307 C       6      r6    -0.0080
   3097 C          -21.5126     9.4456   -14.0344 C       6      r6     0.0007
   3098 C          -20.0746     9.3568   -14.2974 C       5      r5    -0.0015
   3099 C          -19.6220     9.5398   -15.6379 C       5      r5    -0.0019
   3100 C          -19.2056    10.5789   -11.7559 C       6      r6     0.0013
   3101 C          -18.9112     8.7344   -13.6730 C       5      r5     0.0004
   3102 C          -18.6896     9.3337   -12.3487 C       0      r0     0.0021
   3103 C          -17.9332     8.4114   -14.7099 C       5      r5     0.0021
   3104 C          -17.7717     8.6162   -11.4424 C       5      r5     0.0027
   3105 C          -16.6415     7.8084   -14.3548 C       0      r0     0.0030
   3106 C          -16.2630    10.7499   -12.8436 C       5      r5    -0.0010
   3107 C          -16.1507    11.1116   -14.2867 C       5      r5    -0.0018
   3108 C          -15.3949     8.1032   -15.2346 C       6      r6    -0.0002
   3109 C          -15.5429     9.7467   -11.9877 C       0      r0    -0.0030
   3110 C          -15.2683    10.6974   -15.3425 C       6      r6    -0.0030
   3111 C          -14.8307     9.3427   -15.5934 C       6      r6    -0.0022
   3112 C          -14.1868     6.8625   -13.0420 C       0      r0    -0.0045
   3113 C          -14.1018     9.8869   -11.7279 C       0      r0    -0.0035
   3114 C          -13.1731     7.7590   -12.8862 C       6      r6    -0.0037
   3115 C          -13.1249     9.2931   -12.6317 C       6      r6    -0.0022
   3116 C          -11.7886     7.1890   -13.1175 C       6      r6     0.0038
   3117 C          -11.9588     9.8939   -13.1971 C       5      r5     0.0029
   3118 C          -11.1389     7.7314   -14.2904 C       6      r6     0.0305
   3119 C          -11.2392     9.1683   -14.2925 C       5      r5     0.0074
   3120 C          -11.1719    11.1362   -13.0694 C       5      r5     0.0065
   3121 C          -10.4795    10.1734   -15.0274 C       5      r5     0.0214
   3122 C          -10.1796    11.2409   -14.1443 C       5      r5     0.0138
   3123 O           -7.4459     9.3158   -11.8806 O       6      r6    -0.4617
   3124 O           -7.4532     7.9784   -14.7724 O       5      r5    -0.4492
   3125 C           -6.6230     9.8074   -13.0997 C       6      r6     0.1973
   3126 C           -6.5403     9.1046   -14.3009 C       5      r5     0.1897
   3127 C           -5.8822    11.0354   -13.0825 C       6      r6    -0.0549
   3128 C           -5.8509     9.6703   -15.4010 C       7      r7    -0.0297
   3129 C           -5.0396    10.8077   -15.3898 C       7      r7     0.0016
   3130 C           -4.8358     6.7004   -12.8061 C       7      r7     0.0177
   3131 C           -4.4693     7.8326   -11.9499 C       6      r6    -0.0006
   3132 C           -3.4127     8.6718   -12.3646 C       5      r5    -0.0041
   3133 C           -3.1492     7.4778   -14.5939 C       6      r6     0.0001
   3134 C           -2.8111     8.4326   -13.6172 C       5      r5    -0.0051
   3135 C           -2.9367     9.9543   -11.9089 C       5      r5    -0.0036
   3136 C           -2.3026     7.3001   -15.8614 C       6      r6    -0.0043
   3137 C           -1.9814     9.4384   -13.9588 C       7      r7    -0.0002
   3138 C           -1.9221    10.3187   -12.8666 C       7      r7    -0.0040
   3139 C           -1.4566     9.5436   -15.2681 C       7      r7    -0.0106
   3140 C           -0.8996    11.2596   -12.7881 C       7      r7    -0.0035
   3141 C           -0.8462    10.7105   -15.7684 C       7      r7     0.0416
   3142 C           -0.5019     7.4218   -11.7894 C       5      r5     0.0055
   3143 C            0.0124     6.7538   -12.9862 C       5      r5     0.0002
   3144 C            0.3850    10.7010   -12.8746 C       6      r6     0.0000
   3145 C            0.7964     9.5380   -12.0976 C       6      r6     0.0034
   3146 C            1.2341     7.0095   -13.7182 C       7      r7     0.0023
   3147 C            2.0554     8.0053   -14.4422 C       7      r7     0.0014
   3148 C            2.2305     9.2306   -12.2923 C       6      r6     0.0120
   3149 C            2.4715    10.5625   -14.3324 C       6      r6     0.0022
   3150 C            2.5624     9.1755   -13.7257 C       6      r6    -0.0019
   3151 C            2.6361     7.5242   -15.7648 C       7      r7    -0.0024
   3152 C            3.1145    11.2660   -15.4208 C       6      r6     0.0007
   3153 C            4.6510     6.7353   -12.0921 C       6      r6     0.0093
   3154 C            4.8489     7.9070   -11.2311 C       5      r5     0.0154
   3155 C            5.5853    10.5114   -15.8175 C       7      r7    -0.0005
   3156 C            6.0779    10.0377   -14.4883 C       7      r7    -0.0021
   3157 C            7.3055     9.3262   -14.2630 C       7      r7    -0.0004
   3158 C            7.4317    10.6267   -12.0186 C       7      r7    -0.0012
   3159 C            7.9693     8.7905   -15.4768 C       7      r7     0.0017
   3160 C            8.0465    10.0537   -13.2109 C       7      r7    -0.0003
   3161 C            9.3809     8.7423   -15.4350 C       6      r6    -0.0006
   3162 C            9.4502    10.1344   -13.4218 C       7      r7     0.0012
   3163 C           10.1817     9.4868   -14.4761 C       6      r6    -0.0001
   3164 C           10.2184    10.8383   -12.5560 C       7      r7    -0.0001
   3165 C           11.5867     9.5565   -14.8428 C       7      r7    -0.0033
   3166 C           12.1419     7.2519   -13.9086 C       5      r5    -0.0625
   3167 C           12.4762     8.4844   -14.6550 C       7      r7     0.0112
   3168 C           13.3136     6.7970   -13.3353 C       5      r5     0.0495
   3169 C           13.9064     8.6168   -14.7011 C       7      r7     0.0006
   3170 C           14.3340     7.6074   -13.7268 C       5      r5    -0.0095
   3171 C           14.6299     9.4509   -15.5840 C       7      r7    -0.0007
   3172 C           14.8621    10.1769   -11.7570 C       5      r5    -0.0004
   3173 C           15.2888     7.7908   -12.7776 C       6      r6     0.0049
   3174 C           15.6312    11.4059   -11.9687 C       5      r5     0.0011
   3175 C           15.5568     9.1559   -12.5097 C       5      r5    -0.0005
   3176 C           16.0296     9.1203   -15.7216 C       7      r7     0.0001
   3177 C           16.6719     7.7873   -15.5299 C       6      r6    -0.0020
   3178 C           16.6847     9.7378   -13.2296 C       5      r5    -0.0000
   3179 C           16.8392    11.1122   -12.7593 C       5      r5     0.0017
   3180 C           17.8460     8.0184   -14.7281 C       6      r6    -0.0028
   3181 C           17.8867     9.1146   -13.7666 C       5      r5    -0.0006
   3182 C           18.2302    11.3012   -12.7572 C       7      r7     0.0004
   3183 C           18.9115    10.0823   -13.2688 C       7      r7    -0.0002
   3184 C           19.1238     7.2946   -15.1944 C       7      r7    -0.0002
   3185 C           19.9255     9.9395   -12.3684 C       7      r7    -0.0007
   3186 C           20.2711     7.8289   -15.7447 C       7      r7    -0.0001
   3187 C           20.7259    10.1510   -11.4051 C       7      r7    -0.0004
   3188 C           21.9043     6.9107   -12.1511 C       7      r7     0.0066
   3189 C           22.4463    10.7958   -14.3808 C       6      r6     0.0083
   3190 C           22.9015     9.4559   -14.9000 C       6      r6    -0.0531
   3191 C           23.2231    11.3472   -13.3300 C       6      r6    -0.0076
   3192 C           24.0208     8.7770   -14.3244 C       5      r5     0.2479
   3193 C           24.4264    10.7436   -12.6492 C       7      r7     0.0110
   3194 O           24.6885     7.5113   -14.7305 O       5      r5    -0.5043
   3195 C           24.7555     9.5833   -13.4690 C       7      r7    -0.0433
   3196 C          -24.8416    11.6255   -12.3191 C       7      r7    -0.0008
   3197 C          -24.5744    15.1627   -11.9038 C       5      r5    -0.0063
   3198 C          -24.4729    14.8389   -15.1554 C       6      r6    -0.0019
   3199 C          -23.8068    12.4205   -15.0134 C       7      r7    -0.0007
   3200 C          -23.5247    13.8010   -14.6165 C       6      r6    -0.0016
   3201 C          -23.2005    11.2815   -14.3376 C       7      r7     0.0025
   3202 C          -22.3047    14.1723   -13.9400 C       6      r6    -0.0022
   3203 C          -22.2398    11.5530   -11.9159 C       7      r7    -0.0020
   3204 C          -22.0277    15.5867   -13.7618 C       6      r6     0.0000
   3205 C          -21.1685    12.0756   -12.7345 C       5      r5     0.0002
   3206 C          -21.2398    13.1443   -13.7321 C       5      r5    -0.0016
   3207 C          -19.8738    13.2744   -14.2621 C       7      r7    -0.0030
   3208 C          -19.7990    11.5047   -12.7405 C       5      r5     0.0009
   3209 C          -19.8147    15.3469   -15.7218 C       7      r7    -0.0043
   3210 C          -18.9842    12.4010   -13.4815 C       7      r7     0.0000
   3211 C          -19.2864    14.0144   -15.3325 C       7      r7    -0.0026
   3212 C          -19.1480    14.9951   -11.5621 C       7      r7    -0.0026
   3213 C          -17.5453    12.5713   -13.3265 C       7      r7    -0.0025
   3214 C          -17.7708    15.4877   -11.3747 C       7      r7    -0.0037
   3215 C          -17.1405    11.6773   -12.2203 C       5      r5     0.0009
   3216 C          -16.9097    13.0439   -15.8090 C       7      r7    -0.0018
   3217 C          -16.7376    12.4033   -14.5483 C       7      r7    -0.0019
   3218 C          -15.4548    15.6026   -12.8563 C       7      r7     0.0051
   3219 C          -14.7525    15.5716   -11.5863 C       7      r7     0.0017
   3220 C          -14.6167    15.4880   -14.0384 C       7      r7     0.0177
   3221 C          -13.3490    14.7983   -13.9139 C       7      r7     0.0122
   3222 C          -13.2871    15.5601   -11.5862 C       7      r7     0.0482
   3223 C          -12.8108    14.4277   -15.2369 C       7      r7     0.0003
   3224 C          -12.6015    14.9885   -12.7076 C       6      r6     0.0251
   3225 C          -12.5151    13.0752   -15.8800 C       6      r6    -0.0055
   3226 C          -11.2614    14.7706   -12.4707 C       6      r6     0.0463
   3227 C          -11.3869    12.3122   -12.2188 C       6      r6     0.0261
   3228 C          -10.8881    13.5093   -12.8097 C       6      r6     0.0233
   3229 C          -10.3255    13.5757   -14.1576 C       6      r6    -0.0047
   3230 C          -10.2388    15.7186   -12.6921 C       6      r6     0.0448
   3231 C          -10.1232    14.8346   -14.8396 C       6      r6     0.0055
   3232 C           -9.7436    15.8978   -14.0318 C       6      r6     0.0125
   3233 C           -9.4440    12.4997   -14.4884 C       6      r6     0.0335
   3234 C           -8.0609    12.9175   -14.8702 C       5      r5    -0.0456
   3235 O           -7.6445    14.2258   -12.6222 O       0      r0    -0.5345
   3236 C           -7.3781    13.9252   -14.1242 C       5      r5     0.2522
   3237 C           -6.3891    14.4715   -15.0272 C       5      r5    -0.0545
   3238 C           -6.0069    11.9291   -11.9724 C       7      r7     0.0631
   3239 C           -5.2648    15.4262   -14.8517 C       6      r6     0.0291
   3240 C           -4.9366    11.4334   -14.0836 C       6      r6     0.0036
   3241 C           -5.0482    12.9466   -11.7456 C       7      r7     0.0025
   3242 C           -4.2470    12.6255   -13.9392 C       6      r6     0.0024
   3243 C           -3.9221    13.3365   -15.1153 C       6      r6     0.0003
   3244 C           -4.0362    14.7738   -14.8437 C       6      r6     0.0020
   3245 C           -3.9114    13.0518   -12.6106 C       6      r6    -0.0012
   3246 C           -2.8374    15.3052   -14.5044 C       6      r6     0.0028
   3247 C           -2.6373    13.5109   -12.2047 C       6      r6    -0.0022
   3248 C           -1.6883    13.5062   -13.3780 C       6      r6    -0.0093
   3249 C           -1.6584    14.4722   -14.3773 C       6      r6     0.0077
   3250 C           -1.1473    12.2582   -13.7483 C       7      r7     0.0091
   3251 C           -0.9190    11.9904   -15.1736 C       7      r7    -0.0741
   3252 C           -0.8577    14.3443   -15.4740 C       6      r6    -0.0538
   3253 C            1.5480    11.3405   -13.4958 C       6      r6     0.0015
   3254 C            1.8779    15.3936   -15.8331 C       6      r6     0.0005
   3255 C            2.0606    12.7080   -13.1949 C       6      r6    -0.0018
   3256 C            2.2572    13.3957   -14.4969 C       6      r6    -0.0039
   3257 C            2.5090    13.0081   -11.8536 C       0      r0    -0.0019
   3258 C            2.5773    15.8028   -13.5384 C       6      r6    -0.0009
   3259 C            2.4554    14.8429   -14.6404 C       6      r6    -0.0011
   3260 C            2.6051    12.5873   -15.6755 C       6      r6     0.0187
   3261 C            3.5917    13.9855   -11.6333 C       0      r0    -0.0016
   3262 C            4.5884    11.5007   -15.5229 C       5      r5    -0.0020
   3263 C            4.8116    13.5569   -12.3613 C       6      r6    -0.0006
   3264 C            5.1779    13.6797   -13.7977 C       6      r6    -0.0009
   3265 C            5.2543    12.3715   -14.4866 C       5      r5    -0.0009
   3266 C            5.6451    12.6153   -11.6419 C       7      r7    -0.0002
   3267 C            5.9036    15.6115   -11.5942 C       0      r0     0.0004
   3268 C            6.1051    14.8272   -14.2349 C       6      r6    -0.0012
   3269 C            5.8083    11.2653   -13.6922 C       5      r5    -0.0022
   3270 C            6.2210    11.3838   -12.2997 C       7      r7    -0.0029
   3271 C            6.5878    15.3385   -12.8639 C       6      r6    -0.0010
   3272 C            7.5450    14.6565   -15.2223 C       6      r6    -0.0005
   3273 C            8.6752    13.7491   -14.7638 C       5      r5     0.0018
   3274 C            8.7796    15.5586   -11.8546 C       7      r7     0.0018
   3275 C            9.3089    14.2340   -12.1644 C       0      r0     0.0001
   3276 C            9.3648    13.6008   -13.4623 C       5      r5     0.0004
   3277 C            9.4752    13.1484   -15.8423 C       5      r5     0.0000
   3278 C           10.6139    12.6014   -15.1781 C       5      r5     0.0003
   3279 C           10.5742    12.8239   -13.8275 C       5      r5    -0.0012
   3280 C           11.0754    11.8062   -12.9733 C       5      r5    -0.0005
   3281 C           12.2761    11.6120   -12.2425 C       5      r5    -0.0002
   3282 C           12.6330    14.8326   -13.7469 C       7      r7    -0.0007
   3283 C           12.6422    15.4160   -15.1017 C       7      r7    -0.0032
   3284 C           13.0971    15.6798   -12.6376 C       7      r7    -0.0045
   3285 C           13.2905    13.5147   -13.4431 C       7      r7    -0.0005
   3286 C           13.3337    15.1154   -11.2917 C       5      r5    -0.0003
   3287 C           13.4192    12.5780   -12.3268 C       5      r5    -0.0010
   3288 C           14.7039    13.8886   -13.7069 C       7      r7    -0.0005
   3289 C           14.8971    12.6500   -11.9748 C       5      r5     0.0001
   3290 C           15.3242    13.9968   -14.9709 C       7      r7    -0.0024
   3291 C           15.6592    13.7485   -12.6026 C       5      r5    -0.0005
   3292 C           16.7607    13.9270   -14.6465 C       5      r5    -0.0000
   3293 C           16.9764    13.9319   -13.1994 C       5      r5    -0.0000
   3294 C           17.8454    14.4007   -15.4869 C       0      r0    -0.0012
   3295 C           18.2748    13.8321   -12.4582 C       5      r5     0.0013
   3296 C           18.3685    15.7485   -15.1289 C       6      r6    -0.0009
   3297 C           18.7840    12.5415   -12.1403 C       7      r7    -0.0002
   3298 C           19.3146    14.7510   -12.0731 C       5      r5     0.0002
   3299 C           20.7508    14.1332   -15.4028 C       7      r7    -0.0011
   3300 C           20.8009    15.4947   -14.9049 C       6      r6    -0.0001
   3301 C           21.3770    13.1386   -14.5912 C       7      r7    -0.0002
   3302 C           21.5877    11.7464   -15.0119 C       7      r7    -0.0008
   3303 C           21.9533    13.5388   -13.3667 C       5      r5    -0.0021
   3304 C           22.3547    14.8588   -13.2064 C       5      r5    -0.0020
   3305 C           22.8719    12.6151   -12.8287 C       5      r5     0.0008
   3306 C           23.6025    14.7375   -12.5253 C       5      r5    -0.0024
   3307 C           23.8893    13.3721   -12.2514 C       5      r5    -0.0012
   3308 C           24.5947    15.6911   -12.3898 C       6      r6     0.0050
   3309 C           24.9589    14.4844   -16.1057 C       7      r7    -0.0009
   3310 C           25.1619    12.8551   -11.7620 C       6      r6    -0.0026
   3311 C           25.1987    18.4191   -14.3077 C       5      r5    -0.0009
   3312 C          -24.8350    20.3967   -12.9927 C       5      r5    -0.0042
   3313 C          -24.3922    16.2022   -14.7380 C       6      r6     0.0008
   3314 C          -24.5674    19.6921   -14.2720 C       5      r5    -0.0031
   3315 C          -23.6133    16.1077   -11.4080 C       5      r5     0.0478
   3316 C          -23.1907    17.0978   -12.3624 C       6      r6    -0.0543
   3317 C          -23.0574    16.6642   -13.9198 C       6      r6     0.0080
   3318 C          -22.8197    18.3242   -11.7828 C       6      r6     0.2465
   3319 C          -22.4767    17.8565   -14.7524 C       6      r6    -0.0062
   3320 C          -22.6002    20.5582   -15.9734 C       6      r6    -0.0025
   3321 C          -21.8379    19.0292   -12.5634 C       6      r6    -0.0623
   3322 C          -21.5245    18.5789   -13.9402 C       6      r6     0.0049
   3323 C          -21.0404    20.0189   -11.9896 C       5      r5     0.0432
   3324 C          -20.6647    16.0028   -13.3780 C       0      r0    -0.0026
   3325 C          -20.1459    16.0137   -11.9619 C       7      r7    -0.0015
   3326 C          -20.1757    19.0073   -14.3451 C       6      r6     0.0229
   3327 C          -20.0317    16.3959   -14.6818 C       7      r7    -0.0045
   3328 C          -19.6217    17.7988   -14.9396 C       7      r7    -0.0100
   3329 C          -19.3799    19.9914   -13.6867 C       6      r6    -0.0258
   3330 C          -17.9699    20.1097   -14.0890 C       5      r5     0.2430
   3331 C          -17.9516    18.1569   -11.7848 C       7      r7    -0.0082
   3332 C          -17.3608    16.7914   -12.0177 C       7      r7     0.0027
   3333 C          -17.2203    19.4436   -11.7960 C       7      r7     0.0094
   3334 C          -17.0048    20.1482   -13.0512 C       7      r7    -0.0428
   3335 C          -16.6120    16.4445   -13.2118 C       7      r7     0.0009
   3336 C          -16.5234    16.8668   -14.6289 C       7      r7     0.0040
   3337 C          -15.2008    16.4452   -15.0332 C       7      r7     0.0091
   3338 C          -14.3518    17.1799   -15.9912 C       7      r7     0.0040
   3339 C          -12.9470    16.9131   -15.9540 C       7      r7     0.0345
   3340 O          -12.3879    17.4679   -13.0856 O       5      r5    -0.5143
   3341 C          -12.1067    17.5502   -11.5817 C       7      r7     0.2284
   3342 C          -11.9974    18.0403   -16.0050 C       7      r7    -0.0085
   3343 C          -11.3186    18.3594   -13.5508 C       7      r7     0.2588
   3344 C          -11.1422    18.5576   -14.9397 C       7      r7    -0.0910
   3345 C          -10.6690    18.9106   -12.4758 C       7      r7    -0.0473
   3346 C          -10.0781    19.1895   -15.6655 C       7      r7     0.2452
   3347 C           -9.5512    19.7919   -12.7650 C       7      r7    -0.0026
   3348 C           -9.3457    16.3774   -11.7640 C       6      r6     0.0287
   3349 C           -8.8230    19.5617   -15.0907 C       7      r7    -0.0496
   3350 C           -8.6089    16.6943   -14.3057 C       6      r6     0.0117
   3351 C           -8.5696    19.2127   -13.6967 C       7      r7    -0.0039
   3352 C           -8.4814    17.5231   -12.0031 C       6      r6    -0.0079
   3353 C           -8.2565    17.8224   -13.4285 C       6      r6     0.0035
   3354 C           -8.2913    16.5944   -15.6964 C       5      r5    -0.0066
   3355 C           -6.4287    19.2121   -15.6257 C       7      r7    -0.0100
   3356 C           -6.2331    17.7988   -15.6629 C       7      r7     0.0211
   3357 C           -5.4682    20.2473   -15.1883 C       7      r7     0.0024
   3358 C           -5.2766    16.8654   -15.0313 C       7      r7     0.0089
   3359 C           -4.1042    20.1206   -14.8973 C       7      r7     0.0023
   3360 C           -3.9781    17.4715   -14.8472 C       7      r7     0.0143
   3361 C           -3.5771    18.8439   -14.6479 C       7      r7    -0.0011
   3362 C           -2.8595    16.7023   -14.5850 C       5      r5     0.0032
   3363 C           -2.3757    18.8346   -13.8834 C       7      r7     0.0049
   3364 C           -2.3021    18.9988   -11.3707 C       7      r7     0.0017
   3365 C           -2.2359    19.7161   -12.6657 C       7      r7    -0.0091
   3366 C           -1.9025    17.5096   -13.9611 C       7      r7    -0.0004
   3367 C           -0.7985    16.9726   -13.3333 C       7      r7    -0.0011
   3368 C           -0.4874    17.2902   -12.0153 C       7      r7    -0.0018
   3369 C            0.2057    16.2591   -14.0192 C       5      r5    -0.0014
   3370 C            0.5351    16.2412   -15.5898 C       6      r6    -0.0028
   3371 C            0.7760    16.7030   -11.8253 C       5      r5    -0.0033
   3372 C            1.0483    18.9116   -15.6190 C       5      r5     0.0251
   3373 C            1.2020    16.0165   -13.0668 C       5      r5    -0.0020
   3374 C            1.7644    20.2817   -13.4830 C       5      r5     0.2349
   3375 C            1.9055    19.8832   -12.1737 C       5      r5    -0.0359
   3376 C            2.0220    19.2262   -14.4589 C       5      r5    -0.0395
   3377 C            2.7561    18.6767   -12.1031 C       5      r5     0.0021
   3378 C            2.7310    18.3313   -13.5452 C       5      r5    -0.0079
   3379 C            3.3294    17.0237   -13.8246 C       0      r0     0.0022
   3380 C            4.6602    16.9941   -14.3226 C       0      r0    -0.0039
   3381 C            5.1520    16.8822   -11.5787 C       0      r0    -0.0026
   3382 C            5.2268    15.8236   -14.9769 C       6      r6    -0.0019
   3383 C            5.4319    18.1714   -13.7859 C       6      r6    -0.0036
   3384 C            5.5778    18.0917   -12.3803 C       6      r6    -0.0027
   3385 C            5.9802    19.4377   -14.2996 C       6      r6     0.0008
   3386 C            6.2094    19.2202   -11.6693 C       6      r6    -0.0012
   3387 C            6.8723    19.4176   -15.4871 C       6      r6    -0.0042
   3388 C            7.8786    16.0277   -12.9345 C       7      r7     0.0019
   3389 C            8.2104    16.0307   -15.3772 C       6      r6     0.0029
   3390 C            8.2250    19.8795   -15.1563 C       6      r6    -0.0015
   3391 C            8.3463    16.7342   -14.1864 C       7      r7    -0.0018
   3392 C            8.3805    20.4132   -11.7152 C       5      r5    -0.0087
   3393 C            8.8717    19.3050   -13.9467 C       0      r0     0.0198
   3394 C            9.1862    20.3165   -12.8698 C       5      r5     0.0285
   3395 C            9.2781    17.9090   -13.9081 C       7      r7     0.0104
   3396 C           10.2051    17.5412   -11.5115 C       7      r7    -0.0012
   3397 C           10.3837    17.5325   -12.9907 C       7      r7    -0.0003
   3398 O           11.5687    20.6004   -14.6560 O       6      r6    -0.5163
   3399 C           11.7598    18.0262   -13.1725 C       5      r5     0.0268
   3400 C           12.0757    18.6893   -11.9288 C       5      r5     0.0004
   3401 C           12.2637    16.7958   -15.3796 C       7      r7    -0.0009
   3402 C           12.5940    17.7701   -14.3538 C       7      r7     0.0309
   3403 C           13.3183    19.4504   -11.7593 C       5      r5     0.0192
   3404 C           13.9747    17.6827   -13.8819 C       7      r7    -0.0033
   3405 C           14.2225    16.6558   -12.8657 C       7      r7    -0.0029
   3406 C           14.4450    19.8745   -12.5333 C       5      r5    -0.0378
   3407 C           14.9788    18.6441   -14.4793 C       0      r0    -0.0360
   3408 C           15.1709    16.4372   -11.8698 C       7      r7    -0.0001
   3409 C           15.3019    19.7251   -13.6649 C       5      r5     0.2364
   3410 C           15.9634    18.1520   -15.5630 C       7      r7     0.0239
   3411 C           16.2482    17.2942   -11.4364 C       7      r7    -0.0036
   3412 O           16.5386    20.6003   -13.7537 O       5      r5    -0.4921
   3413 C           17.2967    17.9236   -15.0047 C       7      r7     0.0252
   3414 C           17.4074    17.5919   -12.1857 C       6      r6     0.0075
   3415 C           17.4750    16.5995   -14.3381 C       6      r6    -0.0065
   3416 C           17.9899    16.5492   -12.9886 C       6      r6     0.0029
   3417 C           18.2547    18.6162   -11.6843 C       6      r6     0.0141
   3418 C           18.4571    18.5026   -15.6783 C       7      r7     0.0061
   3419 C           19.3401    16.1362   -12.4916 C       6      r6    -0.0006
   3420 C           19.6973    18.4957   -11.7819 C       7      r7     0.0018
   3421 C           19.7149    16.3379   -15.4090 C       6      r6     0.0018
   3422 C           19.7146    17.7796   -15.7604 C       5      r5    -0.0025
   3423 C           19.9168    20.1749   -15.7846 C       5      r5     0.0021
   3424 C           20.2577    17.2624   -12.3151 C       7      r7    -0.0010
   3425 C           20.6370    18.8978   -15.8193 C       5      r5     0.0008
   3426 C           21.4683    17.2942   -13.2014 C       7      r7     0.0002
   3427 C           21.7075    15.9515   -13.8683 C       6      r6    -0.0011
   3428 C           22.1332    18.7708   -15.8464 C       0      r0    -0.0012
   3429 C           22.0858    18.5735   -12.9445 C       7      r7    -0.0014
   3430 C           22.2947    19.8341   -13.6439 C       6      r6     0.0013
   3431 C           22.7481    19.8734   -15.1189 C       6      r6    -0.0004
   3432 C           22.6749    18.6938   -11.4194 C       7      r7    -0.0009
   3433 C           24.2103    17.0941   -12.2491 C       6      r6     0.0092
   3434 C           24.7737    18.2770   -12.9425 C       5      r5     0.0016
   3435 C           24.8482    19.5311   -12.1144 C       5      r5     0.0297
   3436 C           25.1561    17.1820   -15.2252 C       6      r6     0.0007
   3437 C          -24.7599    24.7748   -13.5167 C       7      r7     0.0008
   3438 C          -24.8749    23.3629   -16.0107 C       7      r7    -0.0012
   3439 C          -23.8200    24.2857   -15.7129 C       5      r5    -0.0028
   3440 C          -23.9531    21.4267   -12.6611 C       5      r5     0.0105
   3441 C          -23.6771    22.3336   -11.5360 C       5      r5    -0.0079
   3442 C          -23.5039    20.5271   -14.8049 C       5      r5    -0.0007
   3443 C          -23.2206    21.5634   -13.8238 C       5      r5    -0.0027
   3444 C          -22.6794    23.3769   -11.6050 C       5      r5     0.0311
   3445 C          -22.1836    22.4738   -13.8588 C       6      r6     0.0089
   3446 C          -21.8311    23.2754   -12.6734 C       6      r6    -0.0560
   3447 C          -21.4451    22.6662   -15.0008 C       6      r6    -0.0094
   3448 C          -20.7620    24.1701   -12.7660 C       7      r7     0.2733
   3449 C          -20.4077    23.6162   -15.0236 C       6      r6     0.0368
   3450 C          -20.1394    24.4421   -13.9423 C       7      r7    -0.0324
   3451 C          -19.8895    20.6764   -12.5688 C       5      r5    -0.0001
   3452 C          -19.5169    21.7391   -11.6722 C       5      r5     0.0145
   3453 C          -18.5115    22.7338   -12.0094 C       0      r0    -0.0203
   3454 C          -17.6723    23.5713   -12.5808 C       5      r5     0.2140
   3455 O          -17.6261    20.6261   -15.4275 O       5      r5    -0.4822
   3456 O          -17.5946    23.7813   -14.1508 O       5      r5    -0.4741
   3457 C          -16.6894    24.3522   -11.7813 C       5      r5    -0.0309
   3458 C          -16.5485    24.9057   -14.1198 C       5      r5     0.2193
   3459 C          -16.3307    21.2231   -14.9537 C       5      r5     0.2548
   3460 C          -16.0293    21.0251   -13.5626 C       7      r7    -0.0263
   3461 C          -15.6761    22.2800   -15.6833 C       6      r6    -0.0240
   3462 C          -15.0033    21.7514   -11.3515 C       7      r7     0.0009
   3463 C          -14.8452    21.5035   -12.8231 C       7      r7     0.0166
   3464 C          -14.3766    22.7701   -14.9825 C       6      r6     0.0032
   3465 C          -13.9169    22.1895   -13.7170 C       6      r6    -0.0043
   3466 C          -12.4338    22.2987   -13.4718 C       6      r6     0.0015
   3467 C          -11.8565    22.4048   -12.1299 C       6      r6    -0.0045
   3468 C          -11.8183    23.7034   -11.3757 C       5      r5    -0.0039
   3469 C          -11.5542    22.2924   -14.6120 C       6      r6    -0.0009
   3470 C          -10.9132    21.4203   -11.6214 C       6      r6     0.0018
   3471 C          -10.8168    24.7504   -12.4040 C       5      r5    -0.0011
   3472 C          -10.0727    22.3539   -14.7200 C       6      r6    -0.0051
   3473 C           -9.6284    21.1342   -12.3191 C       0      r0    -0.0003
   3474 C           -9.3516    24.0291   -12.7158 C       5      r5    -0.0002
   3475 C           -9.1924    23.2032   -13.9622 C       5      r5    -0.0031
   3476 C           -8.4563    23.2955   -11.6987 C       5      r5     0.0020
   3477 C           -8.4133    21.8410   -11.8292 C       6      r6    -0.0035
   3478 C           -7.7607    23.1511   -14.2897 C       7      r7    -0.0029
   3479 C           -7.1271    22.1041   -15.1693 C       7      r7    -0.0032
   3480 C           -7.0841    24.3667   -14.0747 C       7      r7    -0.0038
   3481 C           -5.7370    21.6823   -15.0128 C       7      r7    -0.0039
   3482 C           -5.7067    24.6913   -14.3542 C       7      r7    -0.0042
   3483 C           -4.7193    23.7925   -13.7117 C       7      r7    -0.0039
   3484 C           -4.6775    22.4184   -14.3603 C       7      r7    -0.0029
   3485 C           -4.0964    24.3360   -12.4831 C       7      r7     0.0011
   3486 C           -3.5831    21.4296   -14.4532 C       7      r7    -0.0073
   3487 C           -2.6169    24.1335   -12.0711 C       0      r0    -0.0002
   3488 C           -2.1368    21.4807   -14.3188 C       7      r7    -0.0009
   3489 C           -1.9021    24.0671   -13.1761 C       0      r0     0.0045
   3490 C           -1.7078    20.9586   -12.9830 C       7      r7     0.0394
   3491 C           -1.3046    22.4334   -15.0001 C       5      r5     0.0364
   3492 C           -1.1536    23.8151   -14.3690 C       5      r5     0.0179
   3493 C           -0.8870    21.7749   -12.1958 C       6      r6    -0.0530
   3494 C           -0.6424    24.5570   -15.4852 C       7      r7     0.0054
   3495 C            0.3939    21.6273   -12.2822 C       5      r5     0.2544
   3496 O            0.9092    21.5253   -13.6635 O       5      r5    -0.5065
   3497 C            1.0196    20.7585   -11.3746 C       5      r5    -0.0419
   3498 C            4.0692    23.4013   -16.0685 C       6      r6     0.0015
   3499 C            4.4544    24.6816   -15.5099 C       7      r7     0.0141
   3500 C            5.2696    22.8566   -11.7445 C       6      r6     0.2519
   3501 C            5.5507    20.4988   -12.0645 C       6      r6     0.0059
   3502 C            5.8229    24.9042   -14.9342 C       7      r7    -0.0041
   3503 C            5.8488    20.6416   -13.4676 C       6      r6    -0.0041
   3504 C            5.7383    23.0451   -13.1409 C       7      r7    -0.0312
   3505 C            6.2629    24.3527   -13.6431 C       7      r7     0.0366
   3506 C            6.3152    22.0020   -13.8378 C       7      r7     0.0037
   3507 C            7.1187    22.2011   -15.1003 C       7      r7    -0.0007
   3508 C            7.7256    24.4740   -13.2633 C       7      r7    -0.0094
   3509 C            8.0497    24.6271   -11.9251 C       0      r0     0.0156
   3510 C            8.4533    22.8537   -14.8807 C       7      r7    -0.0050
   3511 C            8.7962    24.0738   -14.2523 C       7      r7    -0.0018
   3512 C            9.6424    22.5368   -15.5940 C       5      r5     0.0143
   3513 C           10.1669    21.9542   -11.4588 C       5      r5    -0.0012
   3514 C           10.0904    24.5752   -14.6036 C       5      r5    -0.0036
   3515 C           10.2817    21.3029   -12.7181 C       5      r5    -0.0390
   3516 C           10.6208    23.6358   -15.5736 C       5      r5     0.0004
   3517 C           11.4067    21.5169   -13.4617 C       6      r6     0.2421
   3518 C           12.0621    23.3315   -11.9153 C       6      r6     0.0088
   3519 C           12.3206    22.5058   -13.0857 C       6      r6    -0.0648
   3520 C           12.6234    24.5945   -11.6686 C       6      r6    -0.0032
   3521 C           12.7343    21.0018   -15.4875 C       5      r5     0.2184
   3522 C           13.3788    22.9057   -13.9932 C       6      r6     0.0046
   3523 C           13.3471   -24.9147   -12.7563 C       6      r6    -0.0058
   3524 C           13.5064    22.1312   -15.1859 C       5      r5     0.1828
   3525 C           13.8824    24.1552   -13.6990 C       6      r6     0.0191
   3526 C           15.0673    21.0106   -11.8681 C       5      r5    -0.0535
   3527 C           15.1617    24.5579   -14.0994 C       6      r6     0.0268
   3528 C           16.2216    21.3568   -12.5229 C       5      r5     0.2421
   3529 C           16.2896    23.7252   -13.7072 C       6      r6     0.0239
   3530 C           16.8425    23.6567   -12.3147 C       6      r6    -0.0010
   3531 C           17.1470    22.3525   -11.9176 C       6      r6    -0.0357
   3532 C           17.1772    23.8403   -14.8407 C       6      r6     0.0239
   3533 C           17.4577    24.8795   -11.7135 C       6      r6    -0.0033
   3534 C           17.9404    22.7186   -15.3931 C       6      r6     0.0520
   3535 C           19.3795    22.6264   -15.1161 C       5      r5     0.0003
   3536 C           19.8597    24.0166   -15.2720 C       5      r5    -0.0041
   3537 C           20.3019    21.6173   -15.6429 C       5      r5     0.0058
   3538 C           22.6431    21.0194   -12.8963 C       6      r6    -0.0009
   3539 C           23.1766    22.1916   -13.6210 C       5      r5    -0.0018
   3540 C           23.0460    21.1208   -11.4824 C       6      r6    -0.0002
   3541 C           23.4602    20.9356   -15.8564 C       7      r7    -0.0007
   3542 C           23.6825    22.0807   -14.9537 C       7      r7    -0.0022
   3543 C           23.8818    23.5213   -11.5953 C       6      r6    -0.0014
   3544 C           23.8027    23.3037   -13.0333 C       5      r5    -0.0021
   3545 C           24.7015    23.9090   -13.9438 C       5      r5    -0.0023
   3546 C           24.5840    23.1612   -15.1316 C       7      r7    -0.0010
   3547 C          -23.7348   -20.7299    -9.6545 C       7      r7     0.0031
   3548 C          -23.5703   -20.9909    -8.2253 C       7      r7     0.0019
   3549 C          -23.0594   -24.7094    -8.4306 C       7      r7    -0.0145
   3550 C          -22.9280   -23.7201    -7.4445 C       7      r7     0.0010
   3551 C          -22.5722   -21.1415   -10.4692 C       6      r6     0.0024
   3552 C          -22.1955   -21.4338    -7.8996 C       6      r6     0.0047
   3553 C          -21.8301    24.9115    -9.2627 C       5      r5     0.0258
   3554 C          -21.7027   -22.8451    -7.6673 C       7      r7    -0.0040
   3555 C          -21.3340   -20.5687    -9.9725 C       7      r7     0.0081
   3556 C          -20.8804   -23.9622    -8.6708 C       7      r7     0.0184
   3557 C          -20.1317   -20.5493   -10.9040 C       7      r7    -0.0026
   3558 C          -19.9014   -24.7649    -7.7847 C       7      r7     0.0013
   3559 C          -19.7845   -23.4557    -9.5659 C       7      r7    -0.0472
   3560 C          -19.6071   -23.8485   -10.9241 C       7      r7     0.2487
   3561 C          -18.8819   -20.5105   -10.0990 C       7      r7    -0.0017
   3562 C          -18.7765   -22.6599    -8.9173 C       7      r7     0.0065
   3563 C          -18.1287   -22.6766    -7.5896 C       7      r7    -0.0026
   3564 C          -18.1478   -21.7421    -9.8976 C       6      r6    -0.0108
   3565 C          -17.6800   -22.3250   -11.1599 C       7      r7     0.0050
   3566 C          -17.1583   -21.5871    -7.3145 C       7      r7    -0.0029
   3567 C          -15.7595   -21.5119    -7.6610 C       7      r7    -0.0041
   3568 C          -15.5349   -23.7687    -8.7896 C       7      r7    -0.0018
   3569 C          -15.4616   -24.5837    -7.5771 C       7      r7    -0.0015
   3570 C          -15.2303   -24.6016    -9.9734 C       7      r7    -0.0008
   3571 C          -15.2286   -22.3326    -8.7314 C       7      r7    -0.0035
   3572 C          -14.8118   -20.5028    -7.0474 C       7      r7     0.0096
   3573 C          -14.1349   -24.7717    -6.9106 C       7      r7    -0.0020
   3574 C          -13.9854   -20.5536    -9.9770 C       7      r7     0.0141
   3575 C          -13.9732   -21.8541    -9.2893 C       7      r7    -0.0001
   3576 C          -13.8659    24.8892    -9.9654 C       7      r7    -0.0012
   3577 C          -13.2540   -22.9008   -11.2817 C       7      r7    -0.0082
   3578 C          -13.1287   -22.9335    -9.7610 C       7      r7     0.0013
   3579 C          -12.9443   -24.2131    -9.1347 C       7      r7    -0.0021
   3580 C          -12.8785   -24.5441    -7.6705 C       7      r7    -0.0015
   3581 C          -11.6743    24.9657    -7.0267 C       6      r6     0.0001
   3582 C          -10.9573   -22.8378   -11.4304 C       6      r6     0.0240
   3583 C          -10.7010   -20.5633   -10.3331 C       5      r5    -0.0356
   3584 C          -10.6719   -22.0230   -10.2401 C       6      r6     0.0210
   3585 C          -10.4966   -24.1860   -11.4064 C       5      r5    -0.0052
   3586 C          -10.4310   -24.8544   -10.0486 C       7      r7     0.0018
   3587 C          -10.3784   -22.6097    -8.9468 C       6      r6    -0.0065
   3588 C          -10.2626   -24.7847    -7.5529 C       7      r7    -0.0005
   3589 C          -10.2958   -24.0590    -8.9184 C       7      r7     0.0002
   3590 C          -10.0466   -21.7840    -7.7158 C       7      r7    -0.0031
   3591 C           -7.8694   -24.4001    -7.0305 C       5      r5    -0.0010
   3592 C           -5.5559   -24.5161    -7.4981 C       6      r6     0.0011
   3593 C           -4.5568   -24.7246   -10.1603 C       7      r7    -0.0030
   3594 C           -4.5585   -23.5097    -7.9800 C       6      r6     0.0003
   3595 C           -4.4870   -22.2794    -7.2606 C       5      r5     0.0022
   3596 C           -4.2309   -21.0813    -8.0466 C       5      r5     0.0013
   3597 C           -4.1248   -23.5636    -9.3632 C       6      r6    -0.0012
   3598 C           -3.4678   -21.1274    -9.2807 C       6      r6     0.0022
   3599 C           -3.2819   -22.4383    -9.8791 C       6      r6    -0.0004
   3600 C           -2.1199   -22.7514   -10.7658 C       6      r6    -0.0019
   3601 C           -0.9035   -23.3699   -10.1666 C       5      r5    -0.0014
   3602 C           -0.8457   -24.3456    -9.0632 C       5      r5    -0.0014
   3603 C            0.4102   -23.2172   -10.6507 C       7      r7    -0.0024
   3604 C            0.5811   -24.6695    -8.9620 C       7      r7    -0.0041
   3605 C            1.3492   -24.0679   -10.0144 C       7      r7     0.0108
   3606 C            1.9792   -21.3169    -7.1614 C       7      r7    -0.0007
   3607 C            2.8214   -20.4743    -9.2770 C       7      r7     0.0002
   3608 C            2.7318   -24.4443   -10.5397 C       7      r7    -0.0618
   3609 C            2.9350   -22.2775    -6.9344 C       7      r7    -0.0002
   3610 C            4.0891   -21.2281    -9.4533 C       7      r7    -0.0020
   3611 C            4.2238   -22.5227    -7.4498 C       7      r7     0.0026
   3612 C            4.8540   -22.1461    -8.6607 C       7      r7    -0.0014
   3613 C            4.9019   -20.5139   -10.4485 C       7      r7    -0.0041
   3614 C            5.8387   -23.1601    -9.0518 C       6      r6     0.0033
   3615 C            6.0259   -23.3222   -10.5091 C       5      r5     0.0296
   3616 C            6.6617   -23.8127    -8.0114 C       6      r6     0.0079
   3617 C            7.7910   -24.6841    -8.2080 C       6      r6    -0.0022
   3618 C            8.4949   -22.5208   -11.1890 C       7      r7     0.0033
   3619 C            8.4697    24.8782   -10.6923 C       0      r0    -0.0032
   3620 C            8.8656   -24.4814    -7.2099 C       6      r6    -0.0002
   3621 C            9.1233   -23.6956   -10.7035 C       7      r7    -0.0025
   3622 C           10.5243   -23.3420   -10.9340 C       7      r7    -0.0035
   3623 C           10.4600   -20.9024   -10.2078 C       7      r7    -0.0025
   3624 C           10.8248   -22.2904    -9.8797 C       7      r7    -0.0021
   3625 C           11.6473   -21.5759    -7.7978 C       6      r6    -0.0031
   3626 C           11.9433   -22.4114    -8.9524 C       6      r6    -0.0017
   3627 C           12.7570   -24.8679   -10.3286 C       6      r6    -0.0049
   3628 C           13.3034   -22.4973    -9.4595 C       7      r7    -0.0036
   3629 C           13.7168   -23.7486    -9.9775 C       7      r7    -0.0051
   3630 C           14.1177   -21.1219    -9.6001 C       7      r7    -0.0018
   3631 H           14.6340   -24.6519    -6.8062 H       0      r0     0.0477
   3632 C           14.9110   -20.7404   -10.8083 C       7      r7    -0.0015
   3633 C           15.1530   -23.7916   -10.2717 C       7      r7    -0.0076
   3634 C           16.0647   -24.0693    -9.0490 C       0      r0    -0.0006
   3635 C           17.0602   -22.7841    -6.9155 C       7      r7     0.0058
   3636 C           17.1919   -23.2558    -8.3012 C       5      r5    -0.0009
   3637 C           18.5087   -23.5828    -8.5069 C       7      r7     0.0048
   3638 C           19.0768   -24.2166    -9.8688 C       7      r7    -0.0009
   3639 C           19.2361   -23.3742    -7.2486 C       7      r7     0.0060
   3640 C           19.4038   -23.1347   -11.0269 C       7      r7    -0.0044
   3641 C           20.6517   -23.3556    -6.8936 C       7      r7     0.0074
   3642 C           20.7699   -22.7323   -11.2407 C       7      r7     0.0010
   3643 C           21.4244   -24.0752    -9.1982 C       7      r7    -0.0023
   3644 C           21.7625   -23.6263    -7.8043 C       7      r7     0.0041
   3645 C           21.8936   -23.2077   -10.2934 C       6      r6    -0.0027
   3646 C           23.0518   -23.4784    -7.3015 C       5      r5    -0.0028
   3647 C           23.2963   -23.1514   -10.6324 C       6      r6    -0.0013
   3648 C           24.1658   -24.3371   -10.1980 C       0      r0    -0.0018
   3649 C           24.3886   -23.8610    -7.7082 C       7      r7    -0.0021
   3650 C           24.8404   -24.4930    -8.9223 C       7      r7    -0.0017
   3651 C          -25.0551   -20.3890   -10.3155 C       7      r7    -0.0018
   3652 C          -24.5236   -20.1958    -7.3575 C       7      r7     0.0009
   3653 C          -23.9793   -16.8933   -11.1438 C       7      r7     0.0073
   3654 C          -21.2231   -20.4608    -8.4645 C       7      r7    -0.0014
   3655 O          -21.1794   -16.2592    -8.2888 O       6      r6    -0.4994
   3656 C          -20.4663   -19.4142    -7.7937 C       7      r7     0.0369
   3657 C          -19.9149   -17.0182    -8.8060 C       6      r6     0.2397
   3658 C          -19.7396   -18.4182    -8.6480 C       7      r7    -0.0381
   3659 C          -18.9769   -16.5170    -9.7297 C       7      r7    -0.0616
   3660 C          -18.6681   -19.2026    -9.3197 C       7      r7     0.0031
   3661 C          -17.5133   -17.0512    -9.7154 C       7      r7     0.0090
   3662 C          -17.3939   -18.6052    -9.6367 C       6      r6    -0.0038
   3663 C          -16.8563   -16.3772    -8.3254 C       5      r5     0.0160
   3664 C          -16.7134   -16.6349   -10.9823 C       7      r7     0.0079
   3665 C          -14.6207   -20.2842   -11.2687 C       7      r7     0.0060
   3666 C          -14.2379   -19.4001    -7.7846 C       7      r7    -0.0398
   3667 C          -14.1585   -19.3632    -9.2076 C       7      r7    -0.0494
   3668 C          -13.9143   -18.0519    -9.6752 C       5      r5     0.2548
   3669 C          -13.8717   -17.8703   -11.1430 C       6      r6    -0.0386
   3670 C          -13.9590   -18.0444    -7.4642 C       7      r7     0.2297
   3671 O          -13.8487   -17.0542    -8.6101 O       5      r5    -0.5329
   3672 C          -11.8135   -15.9325    -7.9456 C       5      r5     0.0498
   3673 C          -10.9062   -17.0391    -7.9162 C       7      r7     0.0093
   3674 C          -10.6147   -15.8581    -9.9709 C       5      r5     0.0001
   3675 C          -10.4001   -17.9626    -6.8223 C       7      r7    -0.0030
   3676 C          -10.2998   -20.3518    -7.8350 C       7      r7    -0.0007
   3677 C          -10.3242   -19.7267    -9.2133 C       7      r7    -0.0032
   3678 C          -10.3036   -17.0939    -9.1891 C       7      r7     0.0025
   3679 C           -9.9583   -18.4102    -9.7214 C       7      r7     0.0022
   3680 C          -10.0785   -18.4667   -11.1821 C       5      r5    -0.0520
   3681 C           -8.2750   -16.1418    -7.5541 C       7      r7    -0.0038
   3682 C           -7.2005   -17.1287    -7.8929 C       7      r7    -0.0005
   3683 C           -7.1112   -18.5700    -7.5208 C       7      r7    -0.0036
   3684 C           -6.2126   -19.4695    -8.3364 C       6      r6    -0.0026
   3685 C           -6.1407   -19.4939    -9.8485 C       7      r7    -0.0016
   3686 C           -6.1150   -16.3376    -8.3625 C       5      r5    -0.0007
   3687 C           -5.7240   -20.4983   -10.9101 C       7      r7     0.0004
   3688 C           -5.6383   -18.2812   -10.4931 C       7      r7    -0.0018
   3689 C           -5.1701   -20.0983    -7.5483 C       5      r5    -0.0004
   3690 C           -4.8078   -16.9658    -8.4286 C       5      r5    -0.0000
   3691 C           -4.4829   -17.4759    -9.8683 C       7      r7    -0.0004
   3692 C           -4.3051   -20.1110   -11.1412 C       7      r7    -0.0000
   3693 C           -4.0489   -16.2437   -10.6468 C       6      r6     0.0006
   3694 C           -3.7529   -17.3155    -7.5304 C       5      r5     0.0006
   3695 C           -3.4441   -19.8296   -10.0079 C       7      r7     0.0012
   3696 C           -3.0099   -18.4517    -9.6246 C       7      r7     0.0015
   3697 C           -2.7534   -18.0269    -8.1500 C       5      r5     0.0002
   3698 C           -1.7293   -18.2966   -10.4489 C       5      r5     0.0012
   3699 C           -1.5023   -18.4684    -7.6567 C       6      r6     0.0008
   3700 C           -0.5404   -18.7275    -9.8668 C       7      r7    -0.0005
   3701 C           -0.3822   -18.7612    -8.4560 C       7      r7     0.0001
   3702 C            0.5850   -18.4831   -10.8813 C       7      r7    -0.0003
   3703 C            0.9128   -19.2649    -7.7592 C       7      r7    -0.0010
   3704 C            1.8349   -17.9436    -7.6575 C       7      r7     0.0004
   3705 C            1.8525   -18.3274   -10.2017 C       7      r7     0.0007
   3706 C            1.8365   -20.4181    -8.2663 C       7      r7    -0.0019
   3707 C            2.0282   -17.4010    -9.0176 C       7      r7     0.0010
   3708 C            2.6319   -16.0522    -9.3719 C       7      r7     0.0017
   3709 C            2.7220   -19.4944   -10.3707 C       7      r7    -0.0014
   3710 C            4.0157   -19.5144   -10.9939 C       7      r7    -0.0006
   3711 C            5.3997   -17.5762   -11.4194 C       7      r7    -0.0004
   3712 C            6.3299   -20.3058   -10.5668 C       7      r7    -0.0021
   3713 C            6.2448   -17.7074   -10.2384 C       7      r7    -0.0007
   3714 C            6.6858   -19.0715    -9.8163 C       7      r7     0.0001
   3715 C            6.9086   -19.2717    -8.3509 C       0      r0    -0.0023
   3716 C            6.9337   -18.4623    -7.1301 C       6      r6     0.0012
   3717 C            7.0274   -16.4981   -10.1692 C       5      r5     0.0001
   3718 C            7.3552   -17.0016    -7.3958 C       6      r6     0.0004
   3719 C            8.4145   -16.3716    -9.6804 C       6      r6    -0.0006
   3720 C            8.5629   -16.8194    -8.2763 C       0      r0    -0.0024
   3721 C            9.7416   -17.5657    -7.9333 C       7      r7    -0.0016
   3722 C           10.9300   -17.3729    -8.7987 C       7      r7    -0.0024
   3723 C           10.6430   -19.8021    -9.2854 C       7      r7    -0.0014
   3724 C           10.8261   -20.3697    -7.8918 C       7      r7    -0.0033
   3725 C           11.1027   -18.4923    -9.7662 C       7      r7    -0.0009
   3726 C           11.6190   -16.0477    -8.7890 C       6      r6    -0.0026
   3727 C           11.6922   -18.0297   -11.0630 C       7      r7     0.0012
   3728 C           12.2172   -16.7290   -11.1116 C       5      r5    -0.0021
   3729 C           13.1042   -18.2009    -7.2018 C       6      r6     0.0083
   3730 C           13.7937   -18.6345    -8.4964 C       7      r7     0.0091
   3731 C           13.8806   -19.9221    -8.9318 C       7      r7    -0.0003
   3732 C           14.3776   -16.4430    -7.3287 C       6      r6    -0.0609
   3733 C           14.5271   -16.3335    -8.7176 C       6      r6     0.0085
   3734 C           14.5730   -17.6515    -9.2976 C       7      r7     0.0008
   3735 C           15.4032   -18.0946   -10.4450 C       7      r7     0.0006
   3736 C           15.4320   -19.4010   -11.1330 C       7      r7     0.0013
   3737 C           15.5810   -16.4491    -6.6671 C       6      r6     0.2809
   3738 C           16.4134   -17.1838   -10.9379 C       6      r6     0.0011
   3739 C           17.0614   -16.2304    -9.9693 C       6      r6     0.0076
   3740 C           17.4225   -19.2043    -8.0924 C       5      r5     0.0286
   3741 C           18.1690   -16.8310    -9.2220 C       5      r5     0.0295
   3742 C           18.2480   -18.2730    -8.9196 C       5      r5     0.0169
   3743 C           18.3558   -19.9359    -7.1547 C       5      r5     0.0021
   3744 C           19.4552   -16.2464    -8.9186 C       5      r5     0.0326
   3745 C           19.6529   -18.5607    -8.5649 C       5      r5     0.0221
   3746 C           19.7532   -19.5070    -7.4774 C       5      r5    -0.0084
   3747 O           20.1528   -17.3583   -11.2848 O       5      r5    -0.4972
   3748 C           20.4225   -17.2863    -8.5235 C       5      r5     0.0223
   3749 C           21.5503   -17.6730   -10.6274 C       7      r7     0.2120
   3750 C           21.6575   -17.5700    -9.2358 C       7      r7    -0.0391
   3751 C           22.6920   -17.7189   -11.4558 C       7      r7    -0.0345
   3752 C           22.5032   -18.0037    -6.9088 C       5      r5    -0.0023
   3753 C           22.9242   -17.8367    -8.4103 C       7      r7     0.0029
   3754 C           23.9791   -19.0560    -8.8857 C       7      r7    -0.0030
   3755 C           23.7846   -16.5508    -8.5099 C       7      r7     0.0003
   3756 C           23.9154   -15.8637    -7.2753 C       7      r7    -0.0007
   3757 C           24.2529   -18.1351   -11.2812 C       7      r7     0.0056
   3758 C           24.4281   -19.2729   -10.2425 C       7      r7     0.0001
   3759 C           24.9461   -19.5829    -8.1124 C       7      r7     0.0038
   3760 C           24.7876   -16.2097    -9.5028 C       7      r7     0.0027
   3761 C           25.1769   -17.1292   -10.5442 C       7      r7     0.0021
   3762 C          -24.7611   -15.1060    -9.2303 C       6      r6     0.0110
   3763 C          -24.7798   -11.5617    -8.8560 C       6      r6    -0.0014
   3764 C          -24.5145   -14.6751    -7.8564 C       6      r6     0.0006
   3765 C          -24.2547   -13.0392   -10.7827 C       7      r7    -0.0012
   3766 C          -24.1444   -14.4763   -10.4236 C       7      r7    -0.0014
   3767 C          -23.5264   -15.4965   -11.1978 C       7      r7     0.0059
   3768 C          -23.4072   -11.6122    -8.4398 C       6      r6    -0.0030
   3769 C          -23.2234   -14.1824    -7.4163 C       6      r6     0.0435
   3770 C          -22.3306   -12.5415    -8.8903 C       6      r6     0.0121
   3771 C          -22.1615   -13.8945    -8.4380 C       6      r6    -0.0566
   3772 C          -21.3513   -12.1653    -9.8981 C       6      r6    -0.0087
   3773 C          -21.2480   -14.9108    -8.8311 C       6      r6     0.2772
   3774 C          -20.2936   -13.0782   -10.1360 C       5      r5     0.0104
   3775 C          -20.3509   -14.4582    -9.7873 C       5      r5    -0.0684
   3776 C          -19.2177   -15.2203   -10.3535 C       7      r7     0.0398
   3777 C          -19.2275   -13.0360   -11.0642 C       5      r5     0.0010
   3778 C          -18.8382   -11.6716   -11.3576 C       6      r6    -0.0030
   3779 C          -18.5461   -14.2834   -11.1120 C       7      r7    -0.0089
   3780 C          -16.2880   -15.1767    -8.4863 C       5      r5     0.0236
   3781 C          -16.4094   -15.2586   -11.0816 C       7      r7     0.0038
   3782 C          -16.1719   -14.4501    -7.0164 C       5      r5     0.0014
   3783 C          -16.1665   -14.5761    -9.8127 C       6      r6     0.0076
   3784 C          -15.8418   -13.1550    -9.6598 C       0      r0     0.0002
   3785 C          -15.7872   -12.0973    -9.2345 C       0      r0     0.0002
   3786 C          -13.7116   -11.9079    -7.1479 C       6      r6     0.0014
   3787 C          -13.6261   -14.6036    -7.4529 C       6      r6     0.0302
   3788 C          -13.2605   -13.8062    -8.5316 C       6      r6     0.0008
   3789 C          -12.9925   -12.4535    -8.2425 C       6      r6    -0.0031
   3790 C          -12.7802   -15.5483    -6.9778 C       6      r6     0.0404
   3791 C          -12.6167   -13.3846   -10.9304 C       6      r6    -0.0021
   3792 C          -12.6054   -14.2839    -9.7201 C       6      r6     0.0168
   3793 C          -12.3039   -12.0491   -10.5640 C       6      r6    -0.0002
   3794 C          -12.2517   -11.7416    -9.1867 C       6      r6    -0.0009
   3795 C          -11.7447   -15.3116    -9.2280 C       5      r5     0.0158
   3796 C          -10.8093   -13.0019    -7.0247 C       6      r6     0.0362
   3797 C          -10.4788   -11.7242    -7.5868 C       0      r0    -0.0055
   3798 C           -9.8363   -13.9198    -7.1015 C       6      r6    -0.0454
   3799 C           -9.6741   -15.0450   -10.7207 C       0      r0    -0.0015
   3800 C           -9.6520   -13.5482   -10.5861 C       6      r6    -0.0029
   3801 C           -9.0353   -13.8650    -8.2528 C       6      r6     0.0048
   3802 C           -9.0051   -12.9549    -9.4312 C       6      r6    -0.0016
   3803 C           -8.3556   -15.5812   -11.1647 C       0      r0    -0.0007
   3804 C           -8.2179   -11.7045    -9.3481 C       6      r6    -0.0012
   3805 C           -8.0635   -14.9827    -8.3606 C       5      r5    -0.0062
   3806 C           -7.4302   -11.3233    -8.0234 C       7      r7    -0.0009
   3807 C           -7.1104   -15.2316   -10.5351 C       6      r6    -0.0038
   3808 C           -6.8052   -12.8230    -7.5917 C       7      r7     0.0000
   3809 C           -6.7141   -15.0039    -9.0354 C       5      r5     0.0007
   3810 C           -5.9039   -13.6029    -8.5454 C       7      r7    -0.0005
   3811 C           -5.5679   -12.7838    -9.8805 C       7      r7    -0.0002
   3812 C           -5.3207   -13.5216   -11.0507 C       6      r6     0.0023
   3813 C           -4.9043   -11.4759    -9.6940 C       7      r7     0.0004
   3814 C           -4.5320   -14.0442    -7.9234 C       0      r0     0.0004
   3815 C           -3.5033   -14.8454    -8.5366 C       6      r6    -0.0005
   3816 C           -3.6123   -11.3587   -10.3457 C       6      r6     0.0015
   3817 C           -3.2116   -15.2167    -9.9977 C       6      r6     0.0012
   3818 C           -2.2543   -15.0407    -7.7545 C       7      r7    -0.0001
   3819 C           -2.1645   -11.9557    -7.0364 C       6      r6     0.0006
   3820 C           -1.9544   -14.8494   -10.6336 C       6      r6    -0.0001
   3821 C           -1.4187   -13.9806    -8.4203 C       7      r7     0.0002
   3822 C           -1.0935   -12.7955    -7.6277 C       7      r7     0.0003
   3823 C           -1.1237   -14.0146    -9.8283 C       6      r6    -0.0003
   3824 C            0.2261   -13.5987   -10.3442 C       6      r6    -0.0002
   3825 C            1.1907   -12.6724    -9.7306 C       5      r5     0.0003
   3826 C            1.2968   -13.7531    -7.4030 C       0      r0     0.0003
   3827 C            1.8308   -12.8487    -8.4454 C       5      r5     0.0008
   3828 C            2.0468   -14.9683    -7.1866 C       7      r7     0.0001
   3829 C            2.6967   -11.7043    -7.9993 C       5      r5    -0.0001
   3830 C            3.2206   -15.2093   -10.4967 C       5      r5     0.0012
   3831 C            3.1221   -15.3777    -8.1842 C       7      r7     0.0007
   3832 C            3.5463   -11.9707    -6.8244 C       5      r5    -0.0003
   3833 C            4.1402   -14.2164    -9.9398 C       5      r5    -0.0005
   3834 C            4.2102   -11.8115   -10.9082 C       6      r6    -0.0002
   3835 C            4.4007   -14.6770    -8.5823 C       5      r5     0.0001
   3836 C            4.8809   -13.0949   -10.5904 C       6      r6    -0.0010
   3837 C            4.7214   -12.8348    -6.8969 C       5      r5    -0.0010
   3838 C            5.2220   -14.0421    -7.5770 C       5      r5    -0.0011
   3839 C            6.2794   -12.7414   -10.1941 C       6      r6     0.0004
   3840 C            6.5181   -11.7117    -9.1593 C       5      r5    -0.0016
   3841 C            6.5855   -15.5636   -11.2070 C       5      r5    -0.0010
   3842 C            7.5035   -13.4003   -10.5283 C       6      r6     0.0002
   3843 C            7.6563   -11.4360    -8.3156 C       5      r5     0.0087
   3844 C            8.6515   -13.2077    -9.6742 C       5      r5     0.0006
   3845 C            8.7156   -12.4150    -8.4362 C       5      r5     0.0182
   3846 C            9.3219   -15.4489   -10.3517 C       6      r6    -0.0003
   3847 C            9.6672   -12.9598    -7.5517 C       7      r7     0.0194
   3848 C            9.6178   -14.2547    -9.5187 C       5      r5     0.0012
   3849 C           10.2741   -14.1203    -8.2142 C       7      r7     0.0008
   3850 C           11.1785   -15.1377    -7.6922 C       7      r7     0.0016
   3851 C           12.1784   -15.6749   -10.1056 C       5      r5    -0.0008
   3852 C           12.3519   -12.4696    -7.2090 C       7      r7    -0.0427
   3853 C           13.1235   -14.6510   -10.6263 C       5      r5    -0.0036
   3854 C           13.8231   -14.0060    -9.5427 C       5      r5     0.0020
   3855 C           14.0928   -12.6172    -9.1677 C       7      r7    -0.0072
   3856 C           14.7224   -14.9482    -8.9390 C       5      r5    -0.0104
   3857 C           15.1697   -12.9679    -8.2056 C       7      r7    -0.0055
   3858 C           15.3524   -14.3835    -7.8663 C       7      r7     0.0142
   3859 C           16.0664   -15.1784    -6.8419 C       7      r7    -0.0831
   3860 C           16.3425   -14.0673   -11.1515 C       5      r5    -0.0039
   3861 C           16.3415   -12.1958    -8.0783 C       7      r7    -0.0027
   3862 C           17.2128   -14.7705   -10.2353 C       5      r5     0.0020
   3863 C           17.3851   -12.4000    -7.1350 C       7      r7    -0.0007
   3864 C           18.3566   -12.9982   -10.7948 C       5      r5    -0.0008
   3865 C           18.4964   -14.1264    -9.8732 C       5      r5     0.0066
   3866 C           19.5151   -14.8030    -9.0609 C       6      r6     0.0058
   3867 C           20.2671   -14.1157    -8.0110 C       7      r7    -0.0033
   3868 C           20.8928   -12.4951   -10.8270 C       5      r5     0.0042
   3869 C           21.0091   -12.8507    -8.1914 C       7      r7    -0.0002
   3870 C           21.5116   -12.4768    -9.4966 C       6      r6    -0.0001
   3871 C           21.5350   -12.1734    -7.0290 C       7      r7    -0.0014
   3872 C           22.8742   -11.8288    -9.4362 C       6      r6    -0.0012
   3873 C           23.8003   -12.1935   -10.4785 C       6      r6    -0.0014
   3874 C          -25.2323   -12.1846   -10.0688 C       6      r6    -0.0025
   3875 C          -23.2651   -10.6792    -7.3173 C       7      r7    -0.0008
   3876 C          -23.2282    -7.5276   -10.8696 C       6      r6     0.0009
   3877 C          -22.1279    -9.9362   -10.6546 C       5      r5    -0.0011
   3878 C          -22.0121   -10.0035    -7.1729 C       7      r7    -0.0009
   3879 C          -21.7565    -7.4577   -10.8231 C       6      r6     0.0006
   3880 C          -21.2638    -8.8357   -11.0173 C       5      r5     0.0001
   3881 C          -21.1517   -11.0065   -10.6743 C       5      r5     0.0009
   3882 C          -20.8375   -10.8586    -6.9740 C       5      r5    -0.0011
   3883 C          -20.6351    -7.8076    -7.3126 C       6      r6     0.0006
   3884 C          -19.8831   -10.6939   -11.2960 C       5      r5    -0.0018
   3885 C          -19.6617   -10.0228    -7.1409 C       5      r5    -0.0005
   3886 C          -19.4557    -8.5714    -7.2312 C       6      r6     0.0001
   3887 C          -18.1770    -7.9751    -6.8578 C       6      r6     0.0013
   3888 C          -17.3712   -10.2598    -6.8321 C       7      r7    -0.0015
   3889 C          -16.6862    -9.1917   -11.1802 C       5      r5    -0.0001
   3890 C          -16.2645   -11.0307    -7.2265 C       7      r7    -0.0002
   3891 C          -15.7548   -10.8157    -8.6016 C       0      r0    -0.0012
   3892 C          -15.5044    -8.9035   -10.3627 C       7      r7     0.0007
   3893 C          -15.0864    -9.6127    -9.1733 C       7      r7    -0.0000
   3894 C          -14.9336    -7.7345   -11.0173 C       7      r7     0.0011
   3895 C          -14.0083    -8.9921    -8.3806 C       7      r7    -0.0019
   3896 C          -14.1129    -8.5101    -6.9622 C       5      r5    -0.0005
   3897 C          -13.5055    -7.5142   -11.2065 C       7      r7     0.0012
   3898 C          -12.9885    -8.1211    -8.8905 C       7      r7     0.0000
   3899 C          -12.5893    -8.3172   -10.3226 C       7      r7     0.0020
   3900 C          -12.3662   -10.7363   -11.2840 C       6      r6    -0.0000
   3901 C          -12.2441    -7.4043    -7.8321 C       5      r5     0.0010
   3902 C          -11.9063    -9.5602   -10.5818 C       6      r6    -0.0000
   3903 C          -11.2244   -11.0526    -8.6256 C       6      r6    -0.0010
   3904 C          -10.9389    -9.8569    -9.4341 C       6      r6    -0.0025
   3905 C           -9.8436    -9.0060    -9.5911 C       0      r0     0.0003
   3906 C           -8.7850    -8.1568    -9.8022 C       0      r0     0.0019
   3907 C           -8.3706   -10.6848    -6.9160 C       5      r5    -0.0018
   3908 C           -8.0134    -8.4769   -11.0218 C       7      r7     0.0011
   3909 C           -8.2079   -10.9949   -10.6087 C       7      r7     0.0006
   3910 C           -7.3745    -9.7924   -10.9854 C       7      r7     0.0013
   3911 C           -6.9954    -8.9888    -7.3985 C       7      r7    -0.0001
   3912 C           -6.4561   -10.2076    -8.1118 C       7      r7    -0.0001
   3913 C           -6.5996    -7.6161    -7.4540 C       7      r7     0.0012
   3914 C           -5.4576   -10.2185    -9.1533 C       7      r7     0.0010
   3915 C           -5.1275    -8.8445   -11.3436 C       7      r7    -0.0000
   3916 C           -5.2960    -7.4115    -7.9074 C       7      r7     0.0005
   3917 C           -5.1664    -8.9986    -9.9241 C       7      r7     0.0014
   3918 C           -4.9784    -7.7964    -9.2208 C       7      r7     0.0001
   3919 C           -4.0293    -6.9257    -9.6768 C       5      r5     0.0004
   3920 C           -3.7477    -6.8703   -11.0572 C       7      r7    -0.0008
   3921 C           -2.5061   -10.6342    -9.7678 C       5      r5     0.0007
   3922 C           -2.2362   -10.4909    -7.2351 C       6      r6     0.0002
   3923 C           -2.2660    -9.9987    -8.5406 C       5      r5    -0.0005
   3924 C           -1.6169    -9.9636   -10.5925 C       5      r5    -0.0004
   3925 C           -1.6629    -8.7338    -8.7555 C       5      r5     0.0000
   3926 C           -1.7729    -7.8006    -7.7148 C       6      r6    -0.0014
   3927 C           -1.0323    -8.7191   -10.0225 C       5      r5    -0.0004
   3928 C           -0.3253    -7.9337   -10.9305 C       7      r7     0.0027
   3929 C            1.0480    -7.9197   -10.5821 C       7      r7     0.0024
   3930 C            1.2802   -10.3367   -11.0455 C       7      r7    -0.0002
   3931 C            1.6787   -11.3315   -10.0385 C       5      r5     0.0004
   3932 C            1.6865    -9.1129   -10.3825 C       7      r7     0.0001
   3933 C            2.4814   -10.7421    -9.0164 C       5      r5    -0.0010
   3934 C            2.7734    -7.1397    -9.1579 C       7      r7     0.0009
   3935 C            2.8936    -9.3677    -9.5423 C       7      r7    -0.0013
   3936 C            3.0883    -8.2682    -8.4706 C       7      r7    -0.0007
   3937 C            4.1091    -9.2221   -10.5352 C       7      r7    -0.0006
   3938 C            4.1434    -8.2503    -7.5540 C       5      r5    -0.0020
   3939 C            4.6713   -10.5340   -10.2573 C       6      r6    -0.0009
   3940 C            4.7451    -6.7123   -10.4444 C       7      r7     0.0021
   3941 C            4.8667    -8.0926   -10.9566 C       7      r7    -0.0010
   3942 C            5.1380    -9.1225    -6.9855 C       5      r5    -0.0010
   3943 C            5.5559   -10.6677    -9.0891 C       5      r5     0.0012
   3944 C            6.0149    -9.8074    -7.9515 C       5      r5    -0.0013
   3945 C            6.1677    -8.4980   -11.5713 C       6      r6    -0.0003
   3946 C            7.3659   -10.1935    -7.6204 C       5      r5     0.0034
   3947 C            7.3650    -7.7128   -11.0849 C       7      r7     0.0000
   3948 C            8.3720    -9.5574    -6.7444 C       5      r5     0.0182
   3949 C            8.5414    -8.5667   -11.0562 C       7      r7    -0.0059
   3950 C            8.9053    -8.2374    -6.7841 C       5      r5     0.0097
   3951 C            9.3781    -7.2307    -7.8382 C       5      r5     0.0109
   3952 C            9.6227    -8.5510   -10.0799 C       7      r7     0.0361
   3953 C            9.7261    -7.3559    -9.2692 C       7      r7     0.0069
   3954 C           10.5156    -9.6287   -10.6125 C       7      r7    -0.0422
   3955 O           11.2665   -10.3860    -8.2899 O       0      r0    -0.5029
   3956 C           11.4690   -10.3357    -9.7601 C       7      r7     0.2582
   3957 C           12.3803   -11.1317    -7.4277 C       7      r7     0.2237
   3958 C           12.6071   -10.7290   -10.4876 C       7      r7    -0.0594
   3959 C           12.9094    -7.8975    -7.5228 C       7      r7     0.0244
   3960 H           12.7979    -8.2125    -8.5705 H       0      r0     0.0642
   3961 C           13.7958   -11.3591    -9.8271 C       7      r7     0.0181
   3962 C           14.6067    -9.1363   -11.1959 C       5      r5     0.0144
   3963 C           14.6776   -10.2340   -10.1815 C       7      r7     0.0052
   3964 C           15.8017    -8.3338   -11.1021 C       5      r5     0.0326
   3965 C           15.9903   -10.1825    -9.6893 C       7      r7    -0.0003
   3966 C           16.7088   -11.0997    -8.9518 C       7      r7    -0.0019
   3967 C           16.5432    -8.9799   -10.1286 C       5      r5     0.0157
   3968 C           18.0015   -10.7263    -8.5952 C       5      r5    -0.0005
   3969 C           17.8986    -8.7771   -10.1536 C       5      r5     0.0010
   3970 C           18.3435   -11.3871    -7.4232 C       7      r7    -0.0030
   3971 C           18.6927    -9.6602    -9.2655 C       6      r6     0.0005
   3972 C           19.8605    -9.6442    -7.2211 C       7      r7     0.0017
   3973 C           19.8969    -9.3892    -8.6014 C       5      r5     0.0013
   3974 C           20.4424    -7.6463   -11.1147 C       0      r0    -0.0014
   3975 C           20.9294    -8.5709    -8.9934 C       7      r7     0.0001
   3976 C           21.1801    -7.8507    -7.8342 C       7      r7     0.0006
   3977 C           21.3796    -8.2239   -10.4003 C       7      r7    -0.0012
   3978 C           22.4095   -11.0394    -7.1058 C       6      r6     0.0007
   3979 C           22.8500    -7.8431   -10.6683 C       7      r7     0.0001
   3980 C           23.2450   -10.9858    -8.3476 C       6      r6    -0.0005
   3981 C           23.4007    -6.7073    -8.2295 C       7      r7     0.0002
   3982 C           23.7531    -7.0031    -9.6678 C       7      r7     0.0003
   3983 C           24.6695   -10.7548    -8.1692 C       6      r6    -0.0016
   3984 C           24.9379    -9.7658    -7.1481 C       7      r7     0.0001
   3985 C           25.0406    -6.7154    -9.9667 C       0      r0     0.0013
   3986 C          -24.9975    -3.3408    -9.5096 C       0      r0    -0.0002
   3987 C          -24.1288    -6.4425   -10.3164 C       6      r6     0.0000
   3988 C          -23.8127    -4.1237    -9.0844 C       6      r6    -0.0002
   3989 C          -23.3772    -5.4233    -9.5053 C       6      r6    -0.0001
   3990 C          -22.5447    -3.4974    -8.6160 C       6      r6    -0.0000
   3991 C          -22.0368    -5.8552    -9.0836 C       7      r7     0.0004
   3992 C          -21.8258    -4.1358    -7.4837 C       6      r6    -0.0001
   3993 C          -21.9769    -3.3635   -11.2343 C       6      r6     0.0001
   3994 C          -21.6536    -3.1801    -9.7389 C       6      r6     0.0001
   3995 C          -21.6151    -5.4882    -7.7506 C       7      r7     0.0003
   3996 C          -21.0687    -6.4841    -9.9706 C       7      r7     0.0006
   3997 C          -20.4565    -6.2857    -7.1479 C       7      r7     0.0007
   3998 C          -20.3060    -2.7140    -9.2626 C       6      r6    -0.0001
   3999 C          -19.7436    -5.7897   -10.1159 C       7      r7     0.0000
   4000 C          -19.2933    -5.1119   -11.3438 C       6      r6    -0.0003
   4001 C          -19.0379    -2.8370   -10.0213 C       6      r6     0.0006
   4002 C          -19.0101    -5.2068    -8.9958 C       7      r7    -0.0001
   4003 C          -18.8268    -5.6419    -7.5306 C       7      r7    -0.0001
   4004 C          -18.3376    -3.9601    -9.2394 C       5      r5     0.0001
   4005 C          -18.3865    -4.2761    -6.9448 C       7      r7    -0.0005
   4006 C          -17.8065    -6.6458    -7.1047 C       7      r7     0.0002
   4007 C          -17.5660    -3.7073    -8.0130 C       7      r7     0.0008
   4008 C          -16.1283    -3.9618    -7.7997 C       7      r7     0.0009
   4009 C          -15.9408    -2.6301   -10.0109 C       6      r6    -0.0003
   4010 C          -15.6403    -5.1083    -6.9556 C       7      r7     0.0008
   4011 C          -15.3301    -3.2958    -8.8267 C       7      r7     0.0004
   4012 C          -13.8917    -3.4548    -8.9633 C       7      r7    -0.0006
   4013 C          -13.4705    -3.8901   -10.3139 C       7      r7    -0.0003
   4014 C          -13.0696    -3.8229    -7.8275 C       7      r7    -0.0001
   4015 C          -12.1019    -4.1222   -10.5395 C       7      r7     0.0004
   4016 C          -11.6255    -3.5726    -8.1131 C       7      r7    -0.0022
   4017 C          -11.1653    -3.6494    -9.5247 C       6      r6    -0.0012
   4018 C          -11.0007    -6.5361    -7.7469 C       6      r6     0.0010
   4019 C          -10.8296    -4.1176    -7.0124 C       7      r7    -0.0013
   4020 C           -9.9868    -6.5183    -8.6113 C       0      r0     0.0011
   4021 C          -10.0348    -2.9402   -10.1115 C       6      r6    -0.0000
   4022 C           -9.0353    -6.6522    -9.5382 C       0      r0     0.0018
   4023 C           -8.0120    -5.7275   -10.1905 C       7      r7     0.0011
   4024 C           -7.1939    -5.1340    -7.9013 C       7      r7     0.0004
   4025 C           -7.4749    -6.4186    -7.2814 C       7      r7     0.0014
   4026 C           -7.4897    -4.1179    -6.8722 C       7      r7    -0.0006
   4027 C           -7.0686    -2.7321    -7.0186 C       7      r7    -0.0016
   4028 C           -7.1985    -4.8692    -9.3661 C       7      r7     0.0016
   4029 C           -6.3633    -2.3681    -9.4455 C       7      r7    -0.0001
   4030 C           -6.2745    -3.7532    -9.8230 C       7      r7     0.0004
   4031 C           -5.1372    -4.1494   -10.7159 C       7      r7    -0.0028
   4032 C           -4.5566    -6.3468    -7.4426 C       7      r7    -0.0007
   4033 C           -4.1812    -2.7810    -6.9608 C       5      r5    -0.0001
   4034 C           -3.7799    -3.7838   -10.2502 C       6      r6    -0.0016
   4035 C           -3.6880    -6.0736    -8.5702 C       7      r7    -0.0002
   4036 C           -3.2905    -2.5382    -9.4885 C       6      r6     0.0006
   4037 C           -2.7697    -4.6457   -10.7423 C       5      r5     0.0008
   4038 C           -2.3304    -5.5954    -8.4067 C       7      r7     0.0022
   4039 C           -2.1000    -4.2834    -7.6960 C       7      r7     0.0023
   4040 C           -1.8175    -2.9945    -8.7637 C       7      r7    -0.0072
   4041 C           -1.3940    -4.2694   -10.6839 C       5      r5    -0.0102
   4042 C           -1.4698    -6.5100    -7.8830 C       5      r5     0.0010
   4043 C           -0.9219    -3.2683    -9.8627 C       7      r7     0.0585
   4044 C           -0.4849    -5.9193    -7.0350 C       5      r5     0.0019
   4045 C            1.6472    -5.0189    -6.9804 C       7      r7     0.0101
   4046 O            1.6150    -2.4324    -9.2856 O       6      r6    -0.5240
   4047 C            1.6855    -6.7891    -9.9339 C       5      r5     0.0009
   4048 C            1.9936    -5.4870   -10.3910 C       5      r5     0.0141
   4049 C            2.8420    -2.6211   -10.0117 C       5      r5     0.2858
   4050 C            3.0062    -4.7884    -7.6180 C       7      r7     0.0107
   4051 C            3.0580    -5.0007    -9.3951 C       7      r7     0.0359
   4052 C            3.3324    -3.3437    -7.2359 C       5      r5     0.0154
   4053 C            3.5697    -3.7670    -9.8142 C       7      r7    -0.0546
   4054 C            3.8201    -6.2451    -9.4308 C       7      r7    -0.0101
   4055 C            4.5252    -2.5881    -7.5084 C       6      r6     0.0025
   4056 C            4.6538    -3.6440   -10.6881 C       7      r7    -0.0025
   4057 C            5.7897    -3.3339    -7.6772 C       6      r6     0.0003
   4058 C            5.7923    -4.3706   -10.1996 C       7      r7     0.0028
   4059 C            5.9308    -5.8427   -10.5710 C       7      r7    -0.0027
   4060 C            6.3976    -4.0468    -8.8902 C       6      r6    -0.0007
   4061 C            7.2250    -6.3728   -10.6266 C       7      r7    -0.0028
   4062 C            7.6751    -4.5845    -8.8785 C       7      r7    -0.0034
   4063 C            8.2364    -5.2755   -10.1556 C       7      r7    -0.0020
   4064 C            8.3409    -4.1973   -11.2690 C       7      r7    -0.0021
   4065 C            8.6150    -2.8151   -10.9299 C       7      r7    -0.0038
   4066 C            8.6598    -4.0450    -7.9051 C       7      r7    -0.0030
   4067 C            8.9215    -2.6336    -8.3565 C       7      r7    -0.0015
   4068 C            9.7799    -5.9274    -9.8465 C       7      r7    -0.0009
   4069 C           10.0485    -6.2256    -7.0654 C       5      r5    -0.0006
   4070 C           10.1038    -4.7831    -7.7208 C       7      r7    -0.0022
   4071 C           10.5034    -5.9624   -11.1985 C       6      r6     0.0006
   4072 C           10.5310    -5.0293    -9.0480 C       5      r5     0.0041
   4073 C           10.9987    -3.6028    -7.2616 C       7      r7    -0.0008
   4074 C           11.3587    -4.0489    -9.4595 C       5      r5     0.0037
   4075 C           11.5047    -3.0092    -8.4960 C       5      r5    -0.0000
   4076 C           11.8733    -4.0602   -10.8787 C       7      r7     0.0067
   4077 C           13.2223    -6.4624    -7.1497 C       7      r7    -0.0383
   4078 C           14.2542    -5.7445    -7.8331 C       5      r5     0.2338
   4079 O           14.8426    -6.2505    -9.1182 O       5      r5    -0.4881
   4080 C           14.8857    -4.6698    -7.1491 C       7      r7    -0.0452
   4081 C           16.0221    -5.2615    -9.0855 C       5      r5     0.2276
   4082 C           16.0737    -4.3214    -8.0411 C       7      r7    -0.0392
   4083 C           16.8827    -2.6720   -10.9426 C       7      r7     0.0045
   4084 C           16.8054    -4.7443   -10.1512 C       5      r5    -0.0399
   4085 C           16.9936    -3.2751    -8.2970 C       7      r7     0.0045
   4086 C           17.3139    -3.4040    -9.7065 C       5      r5    -0.0010
   4087 C           21.4410    -2.3591    -7.9542 C       6      r6    -0.0003
   4088 C           21.7439    -3.7704    -7.7603 C       6      r6    -0.0012
   4089 C           22.0853    -6.7413    -7.6151 C       7      r7    -0.0011
   4090 C           22.2340    -2.7473   -10.2477 C       7      r7     0.0008
   4091 C           23.0417    -4.1820    -8.3741 C       6      r6    -0.0002
   4092 C           23.1914    -3.8038    -9.7327 C       7      r7    -0.0005
   4093 C           24.1162    -4.6309    -7.3554 C       6      r6     0.0003
   4094 C           24.3431    -6.0949    -7.2870 C       6      r6     0.0007
   4095 C           24.4988    -3.9402   -10.4283 C       7      r7     0.0009
   4096 C          -25.1236    -1.8795    -9.5136 C       6      r6     0.0007
   4097 C          -24.7918    -1.3248   -10.7998 C       6      r6     0.0012
   4098 C          -24.4676     1.9223    -6.9850 C       7      r7     0.0012
   4099 C          -24.3240     2.0631    -8.4465 C       7      r7     0.0008
   4100 C          -23.7872    -0.4827    -6.8316 C       7      r7     0.0000
   4101 C          -23.2212     1.4116    -9.0746 C       7      r7     0.0009
   4102 C          -22.7970     1.6764   -10.4505 C       5      r5    -0.0008
   4103 C          -22.4562    -0.4301    -7.3914 C       7      r7    -0.0003
   4104 C          -22.3227     0.4411    -8.5929 C       7      r7     0.0004
   4105 C          -21.4046    -1.4497    -7.1737 C       6      r6    -0.0003
   4106 C          -21.5002     1.0874   -10.7222 C       5      r5     0.0011
   4107 C          -21.2285     0.4133    -9.4577 C       5      r5     0.0009
   4108 C          -20.4392    -1.6357    -8.2413 C       6      r6     0.0000
   4109 C          -20.1871    -0.3975    -9.0116 C       6      r6    -0.0001
   4110 C          -19.3116     2.1240    -7.1678 C       7      r7     0.0002
   4111 C          -19.1242     2.2196    -8.5563 C       7      r7     0.0004
   4112 C          -18.8924    -0.2064    -9.6466 C       6      r6     0.0009
   4113 C          -18.3854     1.1308    -9.3267 C       7      r7    -0.0003
   4114 C          -18.2073    -1.4544    -9.9680 C       6      r6     0.0004
   4115 C          -16.9691     0.9791    -9.0965 C       7      r7    -0.0003
   4116 C          -16.8398    -1.3845    -9.9979 C       6      r6    -0.0005
   4117 C          -16.4119     0.6725    -7.7674 C       7      r7     0.0001
   4118 C          -16.3011     0.0278    -9.9917 C       6      r6    -0.0009
   4119 C          -15.0314     0.2259    -7.7938 C       6      r6    -0.0006
   4120 C          -14.8918     0.3070   -10.2229 C       6      r6     0.0011
   4121 C          -14.4873     1.1581   -11.3478 C       0      r0    -0.0001
   4122 C          -14.1142     0.2186    -8.9720 C       6      r6    -0.0003
   4123 C          -12.6743     0.3995    -8.9547 C       6      r6     0.0014
   4124 C          -11.8481     1.6541    -8.3906 C       6      r6    -0.0070
   4125 C          -11.9201    -0.4923    -9.7820 C       6      r6     0.0044
   4126 C          -11.8415    -0.8493   -11.3278 C       0      r0    -0.0045
   4127 C          -10.5883     1.3573    -7.5533 C       6      r6     0.0030
   4128 C          -10.6742    -0.6943    -9.0408 C       5      r5    -0.0004
   4129 C          -10.0404     0.2526    -8.1909 C       5      r5     0.0015
   4130 C           -9.6794    -1.7514    -9.2845 C       5      r5    -0.0010
   4131 C           -8.7020    -0.0042    -7.9842 C       5      r5    -0.0006
   4132 C           -8.4987    -1.3314    -8.6227 C       5      r5     0.0009
   4133 C           -7.8993     1.1079    -7.7894 C       7      r7     0.0000
   4134 C           -7.2567    -2.1120    -8.3012 C       7      r7    -0.0014
   4135 C           -6.5940     0.9949    -8.0613 C       7      r7     0.0007
   4136 C           -6.1159    -1.1836   -10.2947 C       0      r0     0.0002
   4137 C           -5.9225     1.8413    -8.9590 C       7      r7    -0.0012
   4138 C           -5.8267     0.6250    -6.9883 C       7      r7    -0.0009
   4139 C           -5.2139     1.2654    -9.9708 C       7      r7    -0.0014
   4140 C           -4.9838    -0.1971    -9.9089 C       7      r7    -0.0004
   4141 C           -4.4506    -0.6487    -8.4426 C       7      r7     0.0008
   4142 C           -4.5774    -0.0061    -7.1383 C       7      r7    -0.0008
   4143 C           -4.2543     1.8878   -10.8963 C       7      r7    -0.0037
   4144 C           -4.0955    -1.9766    -8.2442 C       6      r6     0.0004
   4145 C           -3.6881    -0.3878   -10.7613 C       5      r5    -0.0012
   4146 C           -3.2425     0.8387   -11.2506 C       5      r5    -0.0029
   4147 C           -2.8421    -1.4418   -10.4285 C       6      r6    -0.0016
   4148 C           -1.8424     1.0409   -11.5415 C       6      r6    -0.0010
   4149 C           -1.4727    -1.2547   -10.9166 C       6      r6    -0.0018
   4150 C           -1.5319     0.3327    -7.5910 C       7      r7    -0.0007
   4151 C           -1.1745    -1.9102    -7.9431 C       7      r7     0.0203
   4152 C           -1.0123    -0.0267   -11.4291 C       6      r6    -0.0100
   4153 C           -0.9671     1.6375    -7.9004 C       6      r6     0.0013
   4154 C           -0.8877    -0.6066    -8.4112 C       7      r7     0.0076
   4155 C           -0.4771    -2.1204   -10.4217 C       7      r7    -0.0366
   4156 C            0.2522    -0.3844    -9.0883 C       7      r7    -0.0151
   4157 C            0.5303     1.7710    -7.7738 C       6      r6    -0.0023
   4158 C            0.6800    -1.4354   -10.0744 C       7      r7     0.2268
   4159 C            1.1492    -0.8084   -11.2929 C       6      r6    -0.0605
   4160 C            1.1598     0.6379    -8.6352 C       6      r6     0.0103
   4161 C            2.5623     0.4755    -8.9273 C       0      r0     0.0159
   4162 C            3.2000    -2.0572   -11.2020 C       5      r5    -0.0781
   4163 C            3.9539     0.3398    -9.1734 C       0      r0    -0.0007
   4164 C            4.3895    -1.1260    -7.1860 C       7      r7     0.0074
   4165 C            4.6504     0.3365   -10.5022 C       0      r0    -0.0050
   4166 C            4.8711     0.0079    -7.9697 C       7      r7    -0.0044
   4167 C            5.3249     1.1881    -7.2601 C       7      r7     0.0012
   4168 C            5.7855     2.2778    -8.1037 C       6      r6    -0.0241
   4169 H            5.8516     2.1374    -9.1754 H       0      r0     0.0185
   4170 C            8.5750    -0.4162   -11.1858 C       7      r7    -0.0056
   4171 C            8.9075    -2.1252    -9.6590 C       7      r7    -0.0031
   4172 C            8.8056    -1.6270    -7.3537 C       7      r7     0.0020
   4173 C            8.9359    -0.7080    -9.8309 C       7      r7    -0.0015
   4174 C            8.9574    -0.1959    -7.4240 C       7      r7     0.0051
   4175 C            9.1697     0.2401    -8.7331 C       7      r7    -0.0011
   4176 C            9.5282     1.9877   -11.3018 C       7      r7    -0.0077
   4177 C            9.9349     1.3972    -8.8365 C       7      r7    -0.0060
   4178 C           10.1959     2.1682    -9.9840 C       7      r7     0.0056
   4179 C           10.4096     2.1418    -7.7404 C       7      r7     0.0280
   4180 C           12.0851    -1.6883   -10.7745 C       6      r6    -0.0003
   4181 C           12.1848    -1.9038    -9.2985 C       6      r6     0.0025
   4182 C           12.4678    -0.3180   -11.3224 C       7      r7    -0.0001
   4183 C           13.3293    -1.2044    -8.7578 C       7      r7     0.0026
   4184 C           13.2834     2.0606    -7.1072 C       7      r7     0.2267
   4185 C           13.5364    -1.3208    -7.2650 C       7      r7     0.0096
   4186 C           13.8062     0.1109   -10.9103 C       7      r7    -0.0005
   4187 C           14.2667    -0.5156    -9.6480 C       7      r7     0.0004
   4188 C           14.6467     1.7612    -7.4221 C       7      r7    -0.0457
   4189 C           15.7105    -0.7262    -9.6841 C       7      r7    -0.0008
   4190 C           16.2485    -1.3973   -10.9283 C       7      r7    -0.0015
   4191 C           16.1943    -1.1121    -7.3802 C       7      r7    -0.0003
   4192 C           16.6811    -0.6512    -8.6458 C       7      r7    -0.0004
   4193 C           17.0337     1.7335   -10.2713 C       0      r0    -0.0011
   4194 C           17.2405    -2.2518    -7.0816 C       7      r7    -0.0006
   4195 C           17.6366     1.0917   -11.3118 C       5      r5    -0.0001
   4196 C           18.1523    -0.6083    -8.9562 C       6      r6    -0.0021
   4197 C           18.5720    -1.4152    -6.9529 C       6      r6    -0.0031
   4198 C           18.6290     0.0208   -11.3637 C       5      r5     0.0014
   4199 C           19.1021    -0.4736    -7.8552 C       6      r6    -0.0012
   4200 C           19.0273    -0.6481   -10.1517 C       6      r6    -0.0005
   4201 C           20.3323     0.4275    -7.7224 C       6      r6     0.0006
   4202 C           20.2844    -1.4097   -10.2882 C       5      r5     0.0008
   4203 C           20.9669     1.8346    -9.9315 C       7      r7     0.0006
   4204 C           21.2846     0.9841    -8.7657 C       7      r7     0.0027
   4205 C           21.2241    -2.1365    -9.4065 C       5      r5    -0.0005
   4206 C           21.6863     1.7054   -11.2559 C       7      r7    -0.0022
   4207 C           22.4140    -1.5695    -7.1513 C       5      r5     0.0010
   4208 C           22.7175     1.0668    -8.3535 C       7      r7     0.0005
   4209 C           22.8798     1.6133    -7.0345 C       5      r5     0.0008
   4210 C           22.9092     1.0339   -11.5355 C       7      r7    -0.0023
   4211 C           23.6957     0.2412    -9.1333 C       7      r7     0.0010
   4212 C           23.8409    -1.5668    -7.5420 C       5      r5     0.0002
   4213 C           23.7008     0.2721   -10.5472 C       7      r7    -0.0003
   4214 C           24.3881    -1.0401    -8.7684 C       6      r6     0.0011
   4215 C           24.7958    -0.3212   -11.2844 C       5      r5    -0.0007
   4216 C          -24.9299     3.0727    -9.2809 C       7      r7     0.0001
   4217 C          -24.4984     3.2704   -10.6762 C       5      r5    -0.0017
   4218 C          -23.8714     5.9684    -8.3418 C       7      r7     0.0001
   4219 C          -23.4660     2.5056   -11.2409 C       6      r6    -0.0017
   4220 C          -23.2422     5.5090    -7.0856 C       7      r7    -0.0001
   4221 C          -22.3141     4.4045    -6.8685 C       7      r7     0.0007
   4222 C          -20.7324     5.3078   -10.9941 C       7      r7    -0.0008
   4223 C          -20.7292     5.6531    -9.5542 C       7      r7     0.0006
   4224 C          -20.7520     4.4345    -7.2222 C       7      r7     0.0015
   4225 C          -20.2948     4.6009    -8.6082 C       7      r7     0.0008
   4226 C          -19.4325     3.5334    -9.1196 C       7      r7     0.0011
   4227 C          -19.0913     6.4955    -7.2469 C       6      r6     0.0012
   4228 C          -18.7289     3.7943   -10.3948 C       7      r7     0.0007
   4229 C          -17.5739     4.6624   -10.4771 C       6      r6    -0.0001
   4230 C          -16.8483     5.5974    -9.5922 C       7      r7    -0.0000
   4231 C          -15.6230     3.4339   -11.2961 C       6      r6    -0.0020
   4232 C          -15.5529     4.9844    -9.3988 C       7      r7    -0.0010
   4233 C          -15.2287     3.6429    -9.9007 C       7      r7    -0.0000
   4234 C          -14.6043     4.1017    -6.9687 C       7      r7    -0.0005
   4235 C          -14.4547     5.4814    -7.2803 C       7      r7     0.0001
   4236 C          -14.4693     5.7191    -8.7108 C       7      r7    -0.0006
   4237 C          -13.9397     3.1529    -9.3704 C       7      r7     0.0009
   4238 C          -13.8337     3.1821    -7.8904 C       7      r7    -0.0007
   4239 C          -12.7092     3.0353   -10.1481 C       6      r6    -0.0058
   4240 C          -12.5675     2.6489    -7.5014 C       6      r6    -0.0004
   4241 C          -12.4160     3.8129   -11.3753 C       6      r6     0.0064
   4242 C          -11.9643     5.2434   -11.2935 C       6      r6    -0.0024
   4243 C          -11.5620     2.3730    -9.6577 C       6      r6     0.0408
   4244 C          -11.5727     5.9826   -10.0722 C       6      r6     0.0038
   4245 C          -10.3386     2.9966    -9.8194 C       7      r7    -0.0657
   4246 C           -9.9578     5.9130    -9.6954 C       7      r7    -0.0049
   4247 C           -9.6718     3.5523    -8.6716 C       7      r7     0.0040
   4248 C           -9.7623     2.7414    -7.4763 C       7      r7    -0.0011
   4249 C           -9.7690     3.2289   -11.0297 C       7      r7     0.2627
   4250 C           -9.4011     4.9044    -8.5918 C       7      r7    -0.0071
   4251 C           -8.9796     5.5801   -10.7073 C       7      r7     0.0254
   4252 C           -8.9061     4.2662   -11.1795 C       7      r7    -0.0578
   4253 C           -8.5820     5.4578    -7.5492 C       7      r7    -0.0028
   4254 C           -8.2463     2.2758    -7.0920 C       7      r7    -0.0022
   4255 C           -7.6652     6.1558   -10.8620 C       5      r5     0.0136
   4256 C           -7.3369     4.8118    -7.0821 C       7      r7    -0.0036
   4257 C           -7.1371     3.4316    -7.4646 C       7      r7    -0.0032
   4258 C           -6.0258     3.2054    -8.3892 C       7      r7    -0.0021
   4259 C           -4.6982     3.9156    -8.2784 C       7      r7    -0.0026
   4260 C           -3.9108     3.0684   -10.3001 C       7      r7    -0.0059
   4261 C           -3.9315     3.5629    -7.0740 C       7      r7    -0.0000
   4262 C           -3.7361     4.1221    -9.4823 C       7      r7    -0.0062
   4263 C           -2.5257     3.1760    -6.9366 C       7      r7     0.0006
   4264 C           -2.3319     4.7434    -9.6995 C       7      r7    -0.0025
   4265 C           -1.8127     5.4648   -10.8905 C       6      r6    -0.0022
   4266 C           -1.6128     2.9328    -8.0598 C       7      r7    -0.0006
   4267 C           -1.3130     3.9236    -9.1192 C       7      r7     0.0052
   4268 C           -1.2461     6.7830   -10.6843 C       5      r5     0.0051
   4269 C            0.0111     2.7920   -10.9375 C       5      r5    -0.0012
   4270 C           -0.0091     3.6639    -9.8382 C       5      r5    -0.0071
   4271 C            1.3052     4.3362    -9.7421 C       5      r5     0.0369
   4272 C            1.9494     3.8563    -7.2299 C       5      r5    -0.0006
   4273 C            1.9706     4.7032    -8.4245 C       5      r5    -0.0389
   4274 C            2.0975     3.9813   -10.8702 C       5      r5    -0.0043
   4275 C            2.7947     5.8299    -8.1060 C       5      r5     0.2541
   4276 C            3.4311     4.6898   -11.1180 C       0      r0     0.0179
   4277 C            4.5982     4.5868   -10.3324 C       0      r0     0.0122
   4278 C            5.6761     4.5282    -9.6216 C       0      r0    -0.0024
   4279 C            6.2488     3.4564    -7.5891 C       6      r6     0.0014
   4280 C            6.7335     4.3813    -8.6925 C       0      r0    -0.0039
   4281 C            8.2416     6.9064    -9.9182 C       7      r7     0.0071
   4282 C            8.1198     4.7467    -8.7141 C       0      r0    -0.0030
   4283 C            8.8891     5.5963    -9.6765 C       7      r7    -0.0120
   4284 C            8.9027     4.4573    -7.5116 C       7      r7    -0.0026
   4285 C            9.8155     4.9638   -10.5904 C       7      r7     0.0303
   4286 C           10.0813     5.2858    -7.1738 C       7      r7     0.0006
   4287 C           10.9792     3.2198    -9.5399 C       7      r7    -0.0146
   4288 C           11.0277     4.2436   -10.3414 C       7      r7     0.0336
   4289 C           11.3756     3.1891    -8.2000 C       7      r7     0.0247
   4290 C           11.3491     4.7647    -7.4998 C       7      r7     0.0071
   4291 C           12.2826     4.4009   -10.8580 C       7      r7    -0.0562
   4292 C           12.4614     5.5759    -7.5310 C       6      r6    -0.0203
   4293 C           12.7718     2.6296    -8.2030 C       7      r7    -0.0535
   4294 H           13.4362     5.2140    -7.7246 H       0      r0     0.0228
   4295 C           13.5747     4.0382   -10.2249 C       7      r7     0.0084
   4296 C           13.6898     2.8963    -9.2750 C       7      r7     0.0059
   4297 C           14.7463     4.7226   -10.6419 C       7      r7    -0.0096
   4298 C           14.8953     2.2371    -8.7716 C       7      r7    -0.0000
   4299 C           15.8440     4.8773    -9.6569 C       7      r7    -0.0020
   4300 C           16.0829     6.3140    -9.4683 C       7      r7    -0.0014
   4301 C           16.3112     2.4713    -9.3492 C       7      r7    -0.0001
   4302 C           16.7870     3.8754    -9.1347 C       7      r7    -0.0022
   4303 C           17.5867     6.3426    -7.1122 C       6      r6     0.0002
   4304 C           18.0677     4.2492    -8.6251 C       0      r0    -0.0005
   4305 C           18.1347     5.7289    -8.2984 C       0      r0     0.0005
   4306 C           18.6473     6.5852    -9.3648 C       7      r7     0.0009
   4307 C           19.3598     3.4571    -8.5496 C       0      r0     0.0017
   4308 C           19.7544     3.6246   -11.0877 C       6      r6    -0.0012
   4309 C           19.7419     5.0982   -11.1794 C       7      r7    -0.0014
   4310 C           20.0746     3.0039    -9.7730 C       6      r6     0.0010
   4311 C           19.7736     6.0805   -10.0661 C       7      r7     0.0011
   4312 C           20.0823     3.7743    -7.3390 C       5      r5     0.0007
   4313 C           21.2037     4.7329    -7.2931 C       7      r7     0.0003
   4314 C           22.3263     4.8504    -8.2935 C       7      r7    -0.0004
   4315 C           22.2100     5.6783    -9.4210 C       7      r7    -0.0011
   4316 C           23.2002     5.5586   -10.4617 C       6      r6    -0.0013
   4317 C           23.6815     4.2430    -7.8045 C       7      r7    -0.0002
   4318 C           24.2252     4.5888   -10.2912 C       5      r5    -0.0013
   4319 C           24.3911     3.8804    -9.0592 C       7      r7    -0.0002
   4320 C           24.5044     5.2976    -7.0695 C       7      r7    -0.0008
   4321 C           25.1489     6.0771    -8.0923 C       7      r7    -0.0002
   4322 C           25.1567     4.2151   -11.3494 C       5      r5    -0.0018
   4323 C          -24.9514     9.7269   -10.4122 C       7      r7     0.0022
   4324 C          -24.8012     9.4964    -9.0002 C       7      r7    -0.0018
   4325 C          -24.7520     8.1173    -8.8551 C       7      r7     0.0006
   4326 C          -23.7792     9.2687   -11.0349 C       7      r7    -0.0006
   4327 C          -23.6985     7.1567    -9.1548 C       7      r7    -0.0001
   4328 C          -22.6721     8.8258   -10.3325 C       7      r7     0.0001
   4329 C          -22.5375     7.4989    -9.8419 C       7      r7     0.0002
   4330 C          -21.8840    11.2134   -10.5446 C       7      r7    -0.0020
   4331 C          -21.7234     9.8310   -10.0314 C       7      r7    -0.0004
   4332 C          -21.2134     7.0023    -9.3391 C       6      r6    -0.0001
   4333 C          -20.9071     9.3982    -8.9536 C       6      r6     0.0002
   4334 C          -20.6476     8.0389    -8.5332 C       6      r6    -0.0002
   4335 C          -20.4522    10.4526    -8.1339 C       6      r6     0.0006
   4336 C          -19.5338     7.8409    -7.6121 C       6      r6     0.0006
   4337 C          -19.4448    10.1867    -7.1882 C       7      r7    -0.0002
   4338 C          -18.9238     8.9532    -6.9964 C       7      r7    -0.0013
   4339 C          -17.9269     7.2198   -11.1830 C       5      r5     0.0003
   4340 C          -16.8834     6.9527   -10.1422 C       7      r7     0.0017
   4341 C          -16.7967    10.6470    -8.1395 C       7      r7     0.0016
   4342 C          -16.4888     9.5421    -7.3604 C       7      r7     0.0010
   4343 C          -16.3750     8.9428   -11.0852 C       5      r5     0.0020
   4344 C          -15.8467    11.0780    -9.1971 C       6      r6    -0.0002
   4345 C          -15.8638     8.0274   -10.0707 C       7      r7    -0.0011
   4346 C          -15.2312     8.9225    -7.2853 C       7      r7     0.0018
   4347 C          -14.5581     8.0417    -9.3630 C       7      r7    -0.0012
   4348 C          -14.5597    10.4132    -9.1874 C       7      r7    -0.0022
   4349 C          -14.1954     9.1687    -8.3411 C       7      r7     0.0008
   4350 C          -13.7307     6.8959    -9.3160 C       7      r7    -0.0039
   4351 C          -13.7178    10.4709   -10.3901 C       7      r7    -0.0020
   4352 C          -12.5845     9.0301    -7.6710 C       7      r7    -0.0025
   4353 C          -12.4349    11.1331    -9.9887 C       7      r7     0.0011
   4354 C          -12.2241     6.9559    -9.3048 C       6      r6    -0.0009
   4355 C          -12.0944    10.5111    -7.4960 C       7      r7     0.0016
   4356 C          -12.0615    11.4385    -8.5893 C       7      r7    -0.0020
   4357 C          -11.6835     8.1106    -8.4778 C       6      r6     0.0005
   4358 C          -10.3185     8.1804    -8.4758 C       5      r5    -0.0008
   4359 C           -9.6139     7.2497    -9.2959 C       5      r5     0.0044
   4360 C           -9.4431     9.2674    -7.9070 C       7      r7    -0.0045
   4361 C           -8.4097     9.1244    -8.9363 C       7      r7     0.0231
   4362 C           -8.3543     7.8831    -9.5631 C       5      r5     0.0132
   4363 C           -7.8763    10.3388    -9.5084 C       7      r7    -0.0533
   4364 C           -7.4690    10.3935   -10.8413 C       5      r5     0.2532
   4365 C           -7.2513     7.3199   -10.2004 C       6      r6     0.0483
   4366 C           -6.1239     7.0098    -6.8570 C       0      r0    -0.0023
   4367 C           -5.9940     7.8890    -9.8656 C       5      r5    -0.0003
   4368 C           -5.9723     8.3491    -7.2515 C       6      r6    -0.0047
   4369 C           -5.6710     8.6193    -8.6667 C       5      r5    -0.0075
   4370 C           -5.0396     8.4151   -10.7829 C       5      r5     0.0319
   4371 C           -4.8966     9.7374    -8.8359 C       5      r5    -0.0021
   4372 C           -4.3544     9.5234   -10.1253 C       5      r5    -0.0092
   4373 C           -4.3775    10.7039    -7.8236 C       6      r6    -0.0076
   4374 C           -3.2698    10.3692   -10.5681 C       6      r6    -0.0046
   4375 C           -2.5798    11.2683    -9.6025 C       7      r7    -0.0062
   4376 C           -1.7249     7.5329    -8.0606 C       6      r6     0.0040
   4377 C           -1.5199     8.5808    -7.0100 C       6      r6     0.0040
   4378 C           -1.2494    11.0508    -6.8789 C       7      r7    -0.0002
   4379 C           -1.1315    11.3177    -9.6068 C       7      r7    -0.0013
   4380 C           -1.0258     9.8165    -7.6565 C       7      r7     0.0050
   4381 C           -1.2123     7.6288    -9.4586 C       5      r5     0.0081
   4382 C           -0.6479    10.0055    -9.0400 C       7      r7     0.0058
   4383 C           -0.5467     8.8611    -9.9265 C       5      r5     0.0119
   4384 C           -0.1550     8.7128   -11.3301 C       5      r5     0.0065
   4385 C            2.6590    10.9656   -10.3766 C       6      r6     0.0033
   4386 C            2.8218    11.3066    -7.7933 C       0      r0     0.0036
   4387 C            2.9997     9.7119   -11.0719 C       6      r6     0.0021
   4388 O            2.9931     6.9548    -9.0653 O       6      r6    -0.4983
   4389 C            3.4567    11.2179    -9.0711 C       6      r6    -0.0006
   4390 C            3.8701     7.9788    -8.3272 C       6      r6     0.2209
   4391 C            4.0304     8.9075   -10.5609 C       5      r5     0.0450
   4392 C            4.7204     9.2006    -9.3373 C       5      r5    -0.0311
   4393 C            4.8553    10.7307    -9.0489 C       6      r6     0.0023
   4394 C            6.0385     8.6133    -9.4049 C       5      r5     0.0045
   4395 C            6.1329     7.8758   -10.6430 C       5      r5     0.0003
   4396 C            6.7778     8.8087    -6.9590 C       5      r5     0.0007
   4397 C            6.8081     8.3717    -8.3184 C       5      r5    -0.0032
   4398 C            7.2676     7.0473   -10.9807 C       7      r7     0.0030
   4399 C            7.3471    10.8280    -9.5967 C       7      r7    -0.0009
   4400 C            7.8977    10.8934    -8.2701 C       6      r6    -0.0010
   4401 C            7.9975     7.5534    -8.6377 C       5      r5    -0.0002
   4402 C            8.1145    10.3796   -10.7056 C       7      r7    -0.0012
   4403 C            8.6215     7.4491    -7.4453 C       5      r5    -0.0013
   4404 C            9.2350    10.4983    -7.8012 C       6      r6    -0.0004
   4405 C            9.5099    10.0468   -10.3119 C       7      r7     0.0007
   4406 C            9.9026     9.7209    -8.9356 C       7      r7    -0.0001
   4407 C            9.9509     6.8684    -6.9846 C       5      r5    -0.0012
   4408 C           10.5083    10.2869   -11.3139 C       7      r7     0.0021
   4409 C           10.9946     7.5811    -7.8256 C       5      r5    -0.0006
   4410 C           10.9986     8.7726    -8.6721 C       7      r7     0.0007
   4411 C           11.8971    10.6118   -11.2403 C       7      r7     0.0009
   4412 C           12.3146     6.9862    -7.8472 C       5      r5     0.0019
   4413 C           12.3010     8.9552    -9.2525 C       7      r7     0.0018
   4414 C           12.7425     9.8602   -10.3268 C       7      r7     0.0012
   4415 C           13.1364     7.8920    -8.6971 C       5      r5    -0.0031
   4416 C           14.1556     9.9156   -10.4827 C       6      r6    -0.0005
   4417 C           14.5821     8.0442    -8.7435 C       7      r7    -0.0015
   4418 C           14.9896     9.1901    -9.5198 C       7      r7    -0.0006
   4419 C           15.5023     6.9644    -8.3098 C       7      r7    -0.0048
   4420 C           15.9039    10.3890    -7.3883 C       6      r6     0.0007
   4421 C           16.4498     9.4291    -9.6368 C       7      r7     0.0006
   4422 C           16.4303     7.1103   -10.6816 C       7      r7     0.0004
   4423 C           16.3809     7.1260    -7.1532 C       6      r6    -0.0009
   4424 C           16.9231    10.0561    -8.4112 C       6      r6     0.0010
   4425 C           17.1905     8.2797   -10.2449 C       7      r7    -0.0002
   4426 C           18.3417    10.0909    -8.1881 C       6      r6     0.0016
   4427 C           18.4268     8.0850    -9.5577 C       7      r7     0.0014
   4428 C           19.1827     9.1982    -8.9691 C       7      r7     0.0006
   4429 C           20.6546     9.0805    -8.6629 C       7      r7    -0.0009
   4430 C           21.0869     7.7017    -8.4412 C       7      r7    -0.0004
   4431 C           21.1074     6.8046    -9.7026 C       7      r7     0.0002
   4432 C           21.3818    10.3456    -8.5201 C       5      r5    -0.0005
   4433 C           21.3143     7.2260    -7.0825 C       7      r7    -0.0011
   4434 C           21.4430     7.6233   -10.9945 C       7      r7    -0.0025
   4435 C           21.7995     9.0259   -10.9849 C       0      r0     0.0004
   4436 C           22.6156    10.5697    -7.8082 C       5      r5    -0.0008
   4437 C           23.0824     9.4978   -10.9698 C       0      r0     0.0004
   4438 C           23.6483     8.1700    -7.5458 C       7      r7    -0.0008
   4439 C           23.6980     9.6011    -7.6874 C       6      r6    -0.0004
   4440 C           24.2799    10.0408   -11.0856 C       7      r7     0.0005
   4441 C           24.6471     7.4829    -8.2146 C       7      r7    -0.0007
   4442 C           24.9697    10.1638    -8.0393 C       6      r6    -0.0009
   4443 C          -25.2116    11.3867    -7.5263 C       6      r6    -0.0013
   4444 C          -24.5056    13.9281   -11.0860 C       5      r5    -0.0001
   4445 C          -24.2090    13.9357    -8.3852 C       5      r5     0.0009
   4446 C          -24.1553    15.3814    -7.8023 C       5      r5     0.0032
   4447 C          -23.7142    14.1027    -9.8913 C       5      r5    -0.0004
   4448 C          -23.5737    13.0655    -7.1925 C       5      r5    -0.0014
   4449 C          -22.9668    15.3152   -10.2504 C       5      r5     0.0047
   4450 C          -21.7972    15.7506    -9.5513 C       7      r7     0.0156
   4451 C          -21.0378    14.5329    -9.1648 C       7      r7    -0.0047
   4452 C          -21.2034    12.2169    -9.7427 C       6      r6    -0.0002
   4453 C          -20.7756    13.5234   -10.2180 C       6      r6     0.0020
   4454 C          -20.7466    11.8227    -8.4204 C       6      r6     0.0001
   4455 C          -20.4562    14.3236    -7.8495 C       7      r7     0.0017
   4456 C          -20.3487    15.3621    -6.8398 C       7      r7    -0.0002
   4457 C          -20.1598    12.9252    -7.6598 C       6      r6    -0.0002
   4458 C          -19.5032    13.6945   -10.8924 C       6      r6    -0.0006
   4459 C          -18.3950    12.7515   -10.5680 C       6      r6    -0.0009
   4460 C          -18.1656    11.4224   -11.1810 C       6      r6     0.0015
   4461 C          -17.4226    11.5782    -7.2972 C       7      r7     0.0018
   4462 C          -17.0598    13.2690   -10.3176 C       7      r7    -0.0006
   4463 C          -16.8056    12.8058    -7.3036 C       5      r5    -0.0000
   4464 C          -16.8179    14.6883   -10.6098 C       7      r7    -0.0007
   4465 C          -15.9983    13.2380    -8.3632 C       7      r7    -0.0013
   4466 C          -15.9820    12.4748    -9.6142 C       7      r7    -0.0022
   4467 C          -15.5455    14.5434    -8.0889 C       7      r7    -0.0015
   4468 C          -15.4964    15.3278   -10.3757 C       7      r7     0.0000
   4469 C          -14.8533    15.3696    -9.0698 C       7      r7     0.0019
   4470 C          -11.7420    12.1780   -10.7920 C       5      r5    -0.0484
   4471 C          -11.5561    12.8525    -8.5617 C       7      r7    -0.0579
   4472 C          -11.2772    13.0582    -9.8154 C       5      r5     0.2529
   4473 C          -10.8627    13.7980    -7.6797 C       7      r7    -0.0072
   4474 O          -10.4054    14.2574   -10.0715 O       5      r5    -0.5208
   4475 C          -10.0958    14.5950    -8.6121 C       5      r5     0.1768
   4476 C           -9.1125    15.5440    -8.4229 C       6      r6     0.1941
   4477 C           -8.7105    15.5611   -10.8781 C       6      r6     0.0193
   4478 C           -7.8455    14.5392   -11.2031 C       0      r0     0.2928
   4479 C           -7.7766    11.6787    -8.8526 C       7      r7     0.0017
   4480 C           -7.7584    11.8834    -7.4003 C       7      r7    -0.0057
   4481 C           -7.5263    12.5232    -9.9475 C       7      r7     0.0431
   4482 C           -7.3725    13.9061   -10.0580 C       7      r7    -0.0544
   4483 C           -6.9595    11.6744   -11.0148 C       7      r7    -0.0548
   4484 C           -6.0851    14.1530    -9.7292 C       7      r7     0.0148
   4485 C           -5.9128    13.7291    -7.0739 C       6      r6     0.0256
   4486 C           -5.5295    14.2814    -8.4164 C       5      r5     0.0073
   4487 C           -5.0125    13.9085   -10.6767 C       7      r7     0.0068
   4488 C           -4.1408    14.7148    -8.7537 C       7      r7     0.0051
   4489 C           -3.7804    14.1993   -10.0795 C       7      r7    -0.0051
   4490 C           -3.2348    11.5104    -8.2391 C       7      r7    -0.0053
   4491 C           -3.0755    15.0556    -7.8745 C       7      r7     0.0040
   4492 C           -2.5393    13.8605   -10.8054 C       7      r7    -0.0043
   4493 C           -2.2392    12.0951    -7.3192 C       7      r7    -0.0028
   4494 C           -1.6649    15.5670    -8.0365 C       7      r7     0.0001
   4495 C           -1.3123    13.8294    -9.9999 C       7      r7    -0.0019
   4496 C           -0.9016    14.9104    -9.1205 C       7      r7    -0.0002
   4497 C           -0.4565    12.6198    -9.9115 C       6      r6     0.0006
   4498 C            0.5119    14.9865    -8.8049 C       7      r7     0.0002
   4499 C            1.0208    12.8484    -9.7720 C       6      r6     0.0019
   4500 C            1.3995    13.8255    -8.7733 C       6      r6     0.0008
   4501 C            1.9342    12.1681   -10.7362 C       0      r0    -0.0005
   4502 C            2.5490    14.0162    -7.8550 C       6      r6    -0.0002
   4503 C            3.5283    15.0366    -8.0711 C       6      r6     0.0012
   4504 C            3.6347    15.1002    -9.3875 C       0      r0     0.0010
   4505 C            3.6954    15.1969   -10.7331 C       0      r0     0.0003
   4506 C            4.4684    15.7925    -6.8523 C       7      r7     0.0010
   4507 C            5.9588    11.4396    -9.5687 C       7      r7    -0.0022
   4508 C            5.9543    12.7738   -10.2479 C       7      r7    -0.0008
   4509 C            6.4773    15.2862   -10.2741 C       0      r0     0.0022
   4510 C            6.6941    13.9599    -9.7845 C       0      r0     0.0006
   4511 C            7.2278    11.9000    -7.3945 C       7      r7    -0.0009
   4512 C            7.7004    13.2862    -7.5479 C       7      r7    -0.0003
   4513 C            7.9618    13.6334    -8.9573 C       0      r0    -0.0000
   4514 C            9.2564    13.8189    -9.5245 C       0      r0     0.0006
   4515 C            9.8857    13.5907   -10.8834 C       0      r0    -0.0007
   4516 C           10.1487    15.9275    -8.5317 C       6      r6     0.0005
   4517 C           10.3032    14.5108    -8.6542 C       0      r0    -0.0002
   4518 C           11.1738    13.7671    -7.7750 C       5      r5     0.0009
   4519 C           11.2368    13.8229   -10.6666 C       0      r0    -0.0004
   4520 C           12.5358    13.2397    -8.1070 C       7      r7     0.0008
   4521 C           12.5826    14.0705   -10.4552 C       6      r6    -0.0008
   4522 C           12.9723    12.5675    -6.9078 C       7      r7    -0.0000
   4523 C           13.3130    13.4638    -9.3010 C       7      r7     0.0007
   4524 C           14.6761    15.3870   -10.9454 C       7      r7    -0.0015
   4525 C           14.7900    13.4527    -9.3906 C       7      r7     0.0010
   4526 C           15.0639    15.8844    -7.0448 C       7      r7     0.0003
   4527 C           15.1748    11.5973    -7.5842 C       7      r7    -0.0003
   4528 C           15.4756    14.5973   -10.0325 C       7      r7     0.0001
   4529 C           15.6164    12.7353    -8.4510 C       7      r7     0.0009
   4530 C           16.5472    15.2995    -9.3046 C       7      r7    -0.0009
   4531 C           17.0517    13.2251    -8.1975 C       6      r6     0.0013
   4532 C           17.4058    14.6824    -8.3706 C       7      r7     0.0003
   4533 C           17.4733    15.3660    -7.0154 C       7      r7     0.0005
   4534 C           17.7493    12.5028    -7.2802 C       0      r0     0.0014
   4535 C           19.9991    12.6093   -11.2630 C       7      r7     0.0008
   4536 C           20.3762    14.0092   -11.2838 C       7      r7    -0.0008
   4537 C           20.6368    11.4840   -10.6503 C       7      r7    -0.0001
   4538 C           21.2099    11.5762    -9.2936 C       7      r7     0.0010
   4539 C           21.5252    14.4990   -10.4746 C       7      r7    -0.0027
   4540 C           22.1568    12.6284    -8.9862 C       7      r7    -0.0007
   4541 C           22.5013    13.9591    -9.5072 C       7      r7    -0.0000
   4542 C           23.0140    11.9112    -8.1046 C       5      r5    -0.0012
   4543 C           23.7766    14.5424    -8.9252 C       6      r6     0.0001
   4544 C           24.2862    15.9288    -9.0114 C       6      r6    -0.0007
   4545 C           24.3333    12.3778    -7.9259 C       6      r6    -0.0018
   4546 C           24.7371    13.6413    -8.3606 C       6      r6    -0.0010
   4547 C          -25.0696    16.4112    -8.1785 C       6      r6     0.0183
   4548 O          -23.2389    18.8068   -10.4026 O       6      r6    -0.5163
   4549 C          -22.4701    20.0166   -10.0481 C       6      r6     0.2741
   4550 C          -21.4532    20.5086   -10.7973 C       5      r5    -0.0826
   4551 C          -20.7794    16.8443    -9.6917 C       7      r7     0.0158
   4552 C          -20.7300    16.7350    -7.1603 C       7      r7     0.0020
   4553 C          -20.3849    17.4370    -8.4290 C       7      r7     0.0062
   4554 C          -20.0967    17.0619   -10.9364 C       7      r7    -0.0037
   4555 C          -19.6091    18.6377    -8.3736 C       5      r5    -0.0009
   4556 C          -19.0749    18.1518   -10.8654 C       7      r7    -0.0023
   4557 C          -18.8624    19.2947    -7.2881 C       7      r7    -0.0006
   4558 C          -19.0124    19.0060    -9.6899 C       5      r5    -0.0029
   4559 C          -17.7848    19.7016    -9.3989 C       7      r7    -0.0058
   4560 C          -17.6508    19.7963    -7.9461 C       7      r7    -0.0030
   4561 C          -16.8581    20.0336   -10.5109 C       7      r7    -0.0006
   4562 C          -13.6799    16.0733    -8.5699 C       7      r7    -0.0011
   4563 C          -13.2374    16.1455    -7.1916 C       7      r7    -0.0043
   4564 C          -12.6286    16.5817    -9.3814 C       7      r7     0.0162
   4565 C          -12.6333    16.6018   -10.7809 C       7      r7    -0.0398
   4566 C          -11.8558    16.4219    -7.2960 C       7      r7    -0.0093
   4567 C          -11.5768    16.9934    -8.5246 C       7      r7     0.0056
   4568 C          -11.1739    18.4817   -11.2329 C       7      r7    -0.0401
   4569 C          -10.9149    18.2191    -8.5892 C       7      r7    -0.0037
   4570 C          -10.7101    18.8497    -9.8956 C       7      r7     0.0065
   4571 C          -10.2918    20.1726    -9.4853 C       5      r5     0.0002
   4572 C          -10.4786    19.0493    -7.4867 C       7      r7     0.0070
   4573 C           -9.9838    20.2802    -8.0543 C       7      r7     0.0002
   4574 C           -8.6559    16.1986    -9.6167 C       6      r6    -0.0236
   4575 O           -8.4158    15.8032    -7.1198 O       6      r6    -0.4495
   4576 C           -7.8732    17.3910    -9.6073 C       6      r6    -0.0079
   4577 C           -7.7778    18.2394   -10.9174 C       6      r6     0.0260
   4578 C           -7.5424    19.6498   -11.0093 C       0      r0     0.0248
   4579 C           -7.3274    16.8709    -7.2597 C       6      r6     0.1428
   4580 C           -7.1783    17.6646    -8.4131 C       6      r6     0.1893
   4581 O           -5.9984    18.6673    -8.5098 O       6      r6    -0.5139
   4582 C           -5.0461    18.8111    -7.4156 C       6      r6     0.2730
   4583 C           -3.6748    19.2893    -7.6366 C       7      r7    -0.0465
   4584 C           -3.1081    19.4318   -10.2218 C       6      r6     0.0031
   4585 C           -2.9175    18.8543    -8.8323 C       7      r7     0.0298
   4586 C           -2.8658    20.2526    -6.8336 C       7      r7     0.0098
   4587 C           -1.6418    18.2563    -8.6460 C       7      r7    -0.0084
   4588 C           -1.4816    20.3400    -7.3546 C       7      r7    -0.0026
   4589 C           -1.2047    17.9915    -7.2488 C       7      r7     0.0021
   4590 C           -1.2117    18.1473   -11.0441 C       7      r7    -0.0026
   4591 C           -0.9854    16.5668    -7.1408 C       7      r7    -0.0008
   4592 C           -0.6713    17.9598    -9.7065 C       6      r6     0.0015
   4593 C           -0.5210    19.3155    -7.0280 C       7      r7    -0.0004
   4594 C            0.6281    17.3399    -9.4369 C       6      r6    -0.0000
   4595 C            0.9958    16.3468    -8.4328 C       7      r7     0.0012
   4596 C            0.9115    19.2780    -7.3776 C       7      r7    -0.0010
   4597 C            1.3143    16.6947    -7.0630 C       7      r7     0.0015
   4598 C            1.4614    17.1149   -10.6259 C       6      r6    -0.0000
   4599 C            1.7103    18.1340    -6.9636 C       7      r7     0.0002
   4600 C            1.7518    20.3615    -7.9623 C       5      r5     0.0003
   4601 C            2.8040    17.7113   -11.0225 C       0      r0     0.0010
   4602 C            3.1407    18.0599    -7.0693 C       7      r7     0.0006
   4603 C            3.2387    20.2697    -8.1368 C       5      r5    -0.0024
   4604 C            3.8364    16.6984   -11.0639 C       0      r0    -0.0005
   4605 C            3.8140    18.9850    -8.0322 C       7      r7    -0.0004
   4606 C            5.1232    18.6104    -8.6694 C       7      r7    -0.0003
   4607 C            5.6119    17.1837    -8.5871 C       7      r7    -0.0007
   4608 C            5.6931    16.4779    -7.2996 C       7      r7     0.0019
   4609 C            5.8058    19.7608    -9.2121 C       6      r6    -0.0060
   4610 C            6.6520    16.4803    -9.3621 C       6      r6    -0.0008
   4611 C            7.1516    19.4046    -8.8711 C       5      r5    -0.0011
   4612 C            7.5976    19.2540   -11.2028 C       0      r0     0.0003
   4613 C            7.7824    19.4245    -7.5014 C       5      r5    -0.0021
   4614 C            8.0093    16.7921    -7.2580 C       6      r6     0.0010
   4615 C            7.9421    16.6145    -8.7201 C       6      r6    -0.0004
   4616 C            8.0686    18.8982    -9.8749 C       5      r5     0.0004
   4617 C            9.2220    16.5683    -9.4524 C       6      r6     0.0004
   4618 C            9.2265    19.5012    -7.8806 C       5      r5    -0.0033
   4619 C            9.3525    19.0340    -9.2367 C       5      r5     0.0006
   4620 C            9.3910    16.5313   -10.9090 C       7      r7     0.0002
   4621 C           10.2905    16.5343    -7.1442 C       6      r6     0.0005
   4622 C           10.4336    20.1293    -7.5159 C       5      r5     0.0007
   4623 C           10.6560    19.1524    -9.6611 C       5      r5    -0.0023
   4624 C           11.0866    18.5129   -10.8747 C       5      r5    -0.0006
   4625 C           11.3457    19.7029    -8.5050 C       5      r5    -0.0014
   4626 C           12.6614    20.1030    -8.3152 C       7      r7    -0.0036
   4627 C           12.7382    16.6223    -7.1387 C       5      r5     0.0002
   4628 C           13.2783    17.9075    -7.1185 C       5      r5    -0.0005
   4629 C           13.3410    20.2129   -10.5367 C       7      r7    -0.0068
   4630 C           13.4187    19.6252    -9.3373 C       7      r7    -0.0010
   4631 C           14.5089    18.1026    -7.8663 C       7      r7    -0.0011
   4632 C           14.6207    19.1103    -8.8892 C       7      r7    -0.0012
   4633 C           15.4023    16.9661    -7.9448 C       7      r7    -0.0005
   4634 C           15.8477    19.6666    -9.2170 C       7      r7     0.0003
   4635 C           16.2211    16.7372    -9.0759 C       7      r7    -0.0025
   4636 C           16.3680    17.6115   -10.1571 C       7      r7    -0.0011
   4637 C           16.7663    18.9485    -9.9817 C       7      r7    -0.0049
   4638 C           17.2906    19.1937    -6.8651 C       7      r7    -0.0048
   4639 C           17.6370    19.6606   -10.9191 C       6      r6     0.0066
   4640 C           18.0334    20.0452    -7.6883 C       7      r7    -0.0045
   4641 C           19.2909    20.2105    -7.3775 C       7      r7     0.0193
   4642 C           19.7182    20.1982    -9.8743 C       6      r6     0.0005
   4643 C           20.2024    20.1835    -8.4828 C       6      r6     0.0084
   4644 C           20.4184    19.3464   -10.7944 C       7      r7    -0.0012
   4645 C           21.4724    19.6791    -8.1360 C       6      r6    -0.0060
   4646 C           21.6446    18.8806   -10.4413 C       7      r7    -0.0003
   4647 C           21.9556    19.7945    -6.8175 C       6      r6    -0.0028
   4648 C           22.0226    18.8733    -9.1478 C       6      r6    -0.0015
   4649 C           23.1857    18.1100    -8.7348 C       6      r6     0.0036
   4650 C           23.4035    17.3799   -11.0896 C       6      r6     0.0021
   4651 C           23.6503    17.0832    -9.6951 C       6      r6     0.0112
   4652 C           23.7461    19.8710   -11.2760 C       6      r6     0.0085
   4653 C           23.9300    18.4878    -7.5848 C       6      r6     0.0057
   4654 C           25.2239    17.7498    -7.5029 C       6      r6     0.0099
   4655 C          -24.6587    22.0380    -8.0222 C       5      r5    -0.0030
   4656 C          -24.3685    24.6751    -8.8331 C       7      r7     0.0062
   4657 C          -24.3333    22.5843   -10.2355 C       5      r5    -0.0014
   4658 C          -24.2091    21.5012    -9.2398 C       6      r6     0.0363
   4659 C          -23.9659    23.9180    -9.9870 C       5      r5    -0.0191
   4660 C          -23.6881    22.3001    -7.0478 C       5      r5     0.0037
   4661 C          -22.9293    20.8828    -9.1195 C       6      r6    -0.0510
   4662 C          -22.7506    24.5707   -10.6717 C       5      r5     0.0490
   4663 C          -22.2679    22.2224    -7.2056 C       7      r7     0.0002
   4664 C          -21.9367    21.6427    -8.4940 C       7      r7     0.0022
   4665 C          -21.0409    22.3339    -9.4451 C       7      r7    -0.0038
   4666 C          -20.9401    23.7307    -9.0079 C       7      r7     0.0244
   4667 C          -20.5575    21.6282   -10.6086 C       5      r5     0.0214
   4668 C          -20.1184    23.8041    -7.7676 C       7      r7    -0.0059
   4669 C          -16.4724    20.4111    -7.3278 C       7      r7    -0.0028
   4670 C          -16.4620    23.6358    -9.2314 C       5      r5    -0.0021
   4671 C          -16.3469    23.0081    -6.8627 C       7      r7     0.0011
   4672 C          -16.2162    24.1224    -7.8494 C       7      r7     0.0031
   4673 C          -16.2505    21.7773    -7.7702 C       7      r7    -0.0014
   4674 C          -16.3178    22.1926    -9.1748 C       7      r7    -0.0035
   4675 C          -16.4220    24.5622   -10.3842 C       6      r6     0.0091
   4676 C          -16.0405    21.2473   -10.3052 C       7      r7     0.0001
   4677 C          -14.1894    22.7884   -11.0745 C       0      r0    -0.0040
   4678 C          -13.3208    23.8338   -10.8285 C       0      r0    -0.0030
   4679 C          -10.8830    23.7165   -10.1904 C       7      r7     0.0006
   4680 C          -10.5873    21.3898   -10.1857 C       6      r6    -0.0033
   4681 C          -10.5595    22.6143    -9.3363 C       7      r7    -0.0009
   4682 C           -9.8530    22.5482    -8.0921 C       7      r7    -0.0019
   4683 C           -9.3954    23.8518    -7.7314 C       7      r7     0.0017
   4684 C           -9.3819    21.3555    -7.3558 C       7      r7     0.0052
   4685 C           -8.0139    24.2776    -7.7779 C       5      r5    -0.0013
   4686 C           -7.3496    21.0146   -11.1503 C       6      r6    -0.0010
   4687 C           -7.3284    24.0673   -11.2543 C       7      r7     0.0002
   4688 C           -6.8787    23.3257    -7.6356 C       6      r6     0.0084
   4689 C           -6.2778    23.3497   -10.4664 C       7      r7     0.0010
   4690 C           -6.2203    21.9116   -10.5904 C       6      r6     0.0085
   4691 C           -5.8165    24.2033    -8.1646 C       6      r6     0.0000
   4692 C           -5.3732    24.1212    -9.5932 C       7      r7     0.0030
   4693 C           -5.0331    21.2060   -10.4810 C       0      r0     0.0138
   4694 C           -4.0818    20.4145   -10.3315 C       0      r0     0.0242
   4695 C           -2.5847    23.2044    -7.0471 C       7      r7     0.0005
   4696 C           -2.4771    24.6350    -7.3469 C       7      r7     0.0006
   4697 C           -2.1604    22.5680    -8.3663 C       7      r7    -0.0006
   4698 C           -2.3513    23.5320    -9.4231 C       5      r5    -0.0019
   4699 C           -2.0917    23.3309   -10.8364 C       6      r6     0.0006
   4700 C           -2.0846    24.8731    -8.7213 C       5      r5    -0.0039
   4701 C           -1.3678    21.3530    -8.4780 C       7      r7     0.0008
   4702 C           -1.4015    22.1016   -10.9136 C       6      r6     0.0016
   4703 C           -0.7761    21.3738    -9.7816 C       6      r6    -0.0090
   4704 C            0.5233    20.7183   -10.0357 C       6      r6     0.0063
   4705 C            1.1440    24.3926    -7.8644 C       7      r7    -0.0011
   4706 C            1.4620    21.2716    -9.0128 C       5      r5    -0.0072
   4707 C            2.4233    23.8449    -8.1351 C       7      r7     0.0066
   4708 C            2.6230    23.3681    -9.5627 C       7      r7    -0.0526
   4709 C            2.6889    21.9439    -9.5196 C       5      r5     0.0297
   4710 C            3.3445    24.3364   -10.4019 C       7      r7     0.2730
   4711 C            3.4209    23.4400    -7.1348 C       7      r7     0.0017
   4712 C            3.8982    21.4867    -8.8070 C       5      r5     0.0010
   4713 C            4.3660    22.4715    -7.6853 C       7      r7     0.0082
   4714 O            4.6742    24.0828   -11.0493 O       0      r0    -0.5188
   4715 C            5.3865    21.5830   -11.1251 C       6      r6    -0.0475
   4716 C            5.4166    21.2147    -9.5861 C       5      r5     0.0182
   4717 C            5.7930    22.4860    -7.4754 C       7      r7    -0.0010
   4718 C            6.2759    22.2751    -8.8684 C       5      r5     0.0129
   4719 C            7.5156    22.9047    -9.3746 C       0      r0     0.0059
   4720 C            7.8166    24.3555    -9.4202 C       0      r0     0.0165
   4721 C            8.7552    22.0978    -9.6012 C       6      r6    -0.0048
   4722 C            9.0273    21.4282   -10.8482 C       5      r5     0.0040
   4723 C            9.6424    23.1311    -7.5722 C       0      r0    -0.0005
   4724 C            9.9060    22.7368    -8.9345 C       6      r6    -0.0017
   4725 C           10.0163    24.5641    -7.2981 C       6      r6     0.0017
   4726 C           11.0063    23.4315    -9.6795 C       6      r6    -0.0009
   4727 C           11.0041    22.9569   -11.0238 C       6      r6    -0.0109
   4728 C           12.1229    24.2706    -9.2448 C       6      r6    -0.0060
   4729 C           12.9673    23.7496    -8.1506 C       6      r6    -0.0018
   4730 C           12.9360    21.3567    -7.6609 C       7      r7     0.0042
   4731 C           13.4739    22.4366    -8.4405 C       7      r7     0.0115
   4732 C           14.1278    21.3648   -10.8047 C       7      r7     0.0157
   4733 C           14.2987    22.2100    -9.6560 C       7      r7    -0.0101
   4734 C           15.6201    22.1483    -9.1314 C       5      r5    -0.0058
   4735 C           16.1746    20.9228    -8.9419 C       5      r5    -0.0014
   4736 C           16.0973    24.6056    -8.8290 C       0      r0     0.0021
   4737 C           16.2495    23.2801    -8.5024 C       5      r5     0.0521
   4738 C           17.4246    21.1549    -8.3179 C       5      r5     0.0201
   4739 C           17.4670    22.5883    -8.0808 C       5      r5    -0.0096
   4740 C           18.2663    22.1309   -10.9650 C       6      r6     0.0149
   4741 C           18.2955    23.1349    -7.0624 C       0      r0     0.2124
   4742 C           18.4195    24.5912   -10.6759 C       5      r5    -0.0014
   4743 C           18.5791    20.7673   -10.5389 C       6      r6     0.0015
   4744 C           18.9919    23.2977   -10.5147 C       5      r5     0.0033
   4745 O           19.8059    23.0352    -7.2198 O       0      r0    -0.5255
   4746 C           20.3421    24.9232    -9.5686 C       7      r7     0.0088
   4747 C           20.3494    23.5438    -9.8710 C       5      r5     0.0313
   4748 C           21.2261    22.8481    -7.8561 C       5      r5     0.2466
   4749 C           21.3536    22.6580    -9.2321 C       5      r5    -0.0513
   4750 C           22.3634    23.1002    -7.1203 C       5      r5    -0.0469
   4751 C           22.8242    22.6212    -9.4679 C       5      r5    -0.0014
   4752 C           23.3785    22.4337   -10.8013 C       6      r6     0.0038
   4753 C           23.3465    22.8283    -8.1232 C       5      r5    -0.0066
   4754 C           24.6518    24.7031   -11.2052 C       6      r6     0.0022
   4755 C           24.6015    22.6080    -7.5335 C       5      r5     0.0049
   4756 C          -24.1980   -22.3924    -4.1283 C       6      r6    -0.0009
   4757 C          -23.8715   -23.4270    -6.3694 C       7      r7    -0.0019
   4758 C          -23.6990   -21.7375    -2.9873 C       6      r6    -0.0003
   4759 C          -23.3899   -22.8391    -5.1670 C       6      r6    -0.0007
   4760 C          -22.2713   -21.7127    -2.7840 C       6      r6     0.0003
   4761 C          -22.0239   -22.4696    -5.0822 C       5      r5    -0.0010
   4762 C          -21.3993   -22.0683    -3.8679 C       5      r5    -0.0014
   4763 C          -21.1484   -22.7014    -6.1630 C       7      r7     0.0008
   4764 C          -20.0404   -22.2355    -4.1608 C       5      r5    -0.0010
   4765 C          -19.9020   -22.5761    -5.6005 C       7      r7    -0.0020
   4766 C          -19.1287   -24.6121    -6.5798 C       7      r7     0.0021
   4767 C          -18.7916   -23.1943    -6.4244 C       7      r7     0.0000
   4768 C          -18.8434   -21.5535    -3.6585 C       0      r0    -0.0025
   4769 C          -18.2637   -24.7598    -3.8761 C       0      r0     0.0008
   4770 C          -17.6105   -22.1865    -3.9285 C       6      r6    -0.0023
   4771 C          -17.4213   -20.8015    -6.1070 C       7      r7    -0.0026
   4772 C          -17.2641   -23.7544    -3.8453 C       6      r6    -0.0001
   4773 C          -16.8490   -21.4405    -4.8877 C       7      r7    -0.0007
   4774 C          -15.9470   -24.1177    -4.2407 C       6      r6     0.0023
   4775 C          -15.4589   -21.8790    -5.0728 C       7      r7    -0.0043
   4776 C          -15.0351   -22.9997    -4.2352 C       7      r7     0.0005
   4777 C          -14.7006   -20.7521    -5.6384 C       7      r7    -0.0022
   4778 C          -13.9278   -22.8327    -3.2248 C       7      r7    -0.0058
   4779 C          -13.7909   -21.5650    -2.5448 C       7      r7    -0.0171
   4780 C          -13.3744   -20.4576    -3.5156 C       7      r7     0.2033
   4781 C          -12.5610   -22.7685    -3.8308 C       5      r5    -0.0005
   4782 C          -12.1952   -21.4091    -4.0365 C       5      r5    -0.0153
   4783 C          -11.6898   -24.6713    -2.4445 C       7      r7     0.0001
   4784 C          -11.4292   -23.6733    -3.5165 C       7      r7     0.0035
   4785 C          -11.0134   -21.1962    -4.7257 C       7      r7     0.0149
   4786 C          -10.3079   -23.5562    -4.4464 C       7      r7     0.0017
   4787 C          -10.2387   -22.3564    -5.2201 C       7      r7    -0.0058
   4788 C           -9.6449   -22.5510    -6.5448 C       7      r7    -0.0034
   4789 C           -9.4527   -24.6925    -4.9751 C       7      r7     0.0012
   4790 C           -9.1840   -23.9509    -6.5248 C       5      r5    -0.0014
   4791 C           -8.9705   -21.0902    -2.2486 C       7      r7    -0.0003
   4792 C           -8.2481    24.9209    -4.0222 C       7      r7     0.0009
   4793 C           -7.7303   -21.8986    -2.3685 C       7      r7    -0.0056
   4794 C           -7.4425   -23.9365    -3.4925 C       7      r7     0.0013
   4795 C           -6.6159   -22.9236    -4.1637 C       5      r5     0.0013
   4796 C           -6.7084   -21.6305    -3.4144 C       5      r5     0.0010
   4797 C           -6.5514   -24.0028    -6.5464 C       6      r6    -0.0003
   4798 C           -6.1548   -22.9772    -5.5369 C       6      r6     0.0001
   4799 C           -5.7943   -20.5328    -3.2253 C       0      r0    -0.0058
   4800 C           -5.5932   -20.5068    -6.1770 C       5      r5    -0.0006
   4801 C           -5.3007   -21.9203    -6.0767 C       5      r5     0.0012
   4802 C           -4.3284   -20.9357    -3.1678 C       7      r7     0.0009
   4803 C           -3.8796   -22.3753    -3.3684 C       7      r7     0.0003
   4804 C           -3.0862   -24.0361    -5.0813 C       7      r7     0.0007
   4805 C           -2.9804   -22.7390    -4.4428 C       7      r7    -0.0004
   4806 C           -2.3111   -24.2433    -6.3116 C       7      r7     0.0007
   4807 C           -1.8506   -21.7652    -4.8237 C       7      r7     0.0006
   4808 C           -0.9573   -23.7390    -6.1713 C       7      r7     0.0004
   4809 C           -0.7574   -22.5014    -5.3944 C       7      r7    -0.0000
   4810 C            0.1178   -24.6970    -5.7893 C       7      r7    -0.0006
   4811 C            0.4970   -24.8491    -4.3914 C       7      r7    -0.0017
   4812 C            0.6414   -22.0621    -5.2722 C       7      r7    -0.0005
   4813 C            0.9997   -21.0367    -6.1985 C       7      r7     0.0011
   4814 C            1.0188   -23.4645    -2.5537 C       7      r7    -0.0028
   4815 C            1.3486   -23.8724    -3.8928 C       7      r7    -0.0023
   4816 C            1.7197   -22.8467    -4.7901 C       7      r7    -0.0007
   4817 C            2.8025   -22.8664    -5.6705 C       5      r5     0.0014
   4818 C            4.1079   -23.2626    -5.3545 C       5      r5     0.0000
   4819 C            4.2274   -22.3621    -2.9875 C       7      r7    -0.0021
   4820 C            4.3176   -20.9580    -3.5085 C       6      r6    -0.0003
   4821 C            4.6963   -24.8922    -3.7858 C       7      r7    -0.0028
   4822 C            4.5095   -23.4264    -3.9518 C       7      r7    -0.0011
   4823 C            5.0340   -23.0601    -6.4158 C       5      r5     0.0004
   4824 C            5.5202   -20.6654    -4.3054 C       6      r6    -0.0015
   4825 C            6.4420   -23.4246    -6.5937 C       6      r6    -0.0018
   4826 C            6.8092   -21.4370    -3.8884 C       6      r6    -0.0009
   4827 C            7.1568   -22.8483    -4.2046 C       6      r6    -0.0003
   4828 C            7.4644   -23.2923    -5.6018 C       6      r6     0.0017
   4829 C            7.5275   -20.9558    -2.7452 C       6      r6    -0.0006
   4830 C            7.7341   -23.6631    -3.0989 C       7      r7     0.0048
   4831 C            8.8062   -23.4839    -6.2071 C       6      r6    -0.0008
   4832 C           10.1119   -23.0814    -5.6776 C       6      r6     0.0041
   4833 C           10.3213   -21.8546    -4.9509 C       5      r5    -0.0020
   4834 C           10.7549   -21.8519    -3.5344 C       5      r5     0.0119
   4835 H           10.7512   -23.7671    -2.3741 H       0      r0     0.0671
   4836 C           10.8874   -22.6865    -2.4510 C       5      r5    -0.0149
   4837 C           11.3971   -23.7440    -6.0843 C       5      r5     0.0196
   4838 C           12.8944   -21.4186    -7.0593 C       5      r5    -0.0011
   4839 C           12.8353   -23.5797    -5.9843 C       5      r5     0.0053
   4840 C           13.6896   -22.4965    -6.4440 C       5      r5    -0.0076
   4841 C           13.7835   -24.8027    -6.1110 C       7      r7     0.0238
   4842 C           14.1514   -20.7073    -5.3776 C       5      r5     0.0057
   4843 C           14.4127   -24.5547    -2.5030 C       6      r6    -0.0507
   4844 C           14.9267   -21.8585    -5.9101 C       5      r5     0.0033
   4845 C           15.8844   -24.5102    -2.8145 C       6      r6    -0.0524
   4846 C           16.0263   -21.1252    -2.8911 C       6      r6     0.0006
   4847 C           16.3331   -21.7184    -6.2259 C       7      r7    -0.0004
   4848 C           16.9040   -21.4674    -3.9243 C       7      r7    -0.0062
   4849 C           17.0625   -20.8474    -5.2715 C       7      r7     0.0147
   4850 C           18.0541   -22.2626    -3.7143 C       7      r7     0.0160
   4851 C           18.3170   -23.0657    -6.2207 C       7      r7    -0.0005
   4852 C           18.6917   -22.8355    -4.8146 C       7      r7     0.0332
   4853 C           19.0211   -21.8469    -2.7398 C       7      r7     0.0006
   4854 C           20.0432   -22.8137    -4.4972 C       5      r5     0.0072
   4855 C           20.3053   -22.1730    -3.2711 C       7      r7     0.0025
   4856 C           20.9388   -22.9458    -5.5751 C       6      r6    -0.0044
   4857 C           21.6477   -21.7296    -2.8702 C       7      r7    -0.0006
   4858 C           22.1905   -22.5863    -5.0881 C       6      r6    -0.0001
   4859 C           22.5935   -22.0795    -3.8142 C       6      r6    -0.0007
   4860 C           23.1598   -22.8762    -5.9981 C       5      r5    -0.0022
   4861 C           23.9685   -21.9576    -3.5149 C       6      r6     0.0005
   4862 C           24.4744   -22.8163    -5.6102 C       5      r5    -0.0012
   4863 C           24.9335   -22.3069    -4.4506 C       6      r6    -0.0014
   4864 C           25.1923   -23.4334    -6.6159 C       7      r7    -0.0019
   4865 C          -24.7242   -17.7686    -3.0522 C       6      r6     0.0023
   4866 C          -24.2124   -19.5576    -6.0407 C       0      r0     0.0080
   4867 C          -23.9488   -19.1056    -5.0186 C       0      r0     0.0077
   4868 C          -23.6815   -18.6392    -3.6771 C       6      r6     0.0006
   4869 C          -22.2919   -18.5797    -3.1914 C       6      r6     0.0017
   4870 C          -21.4436   -18.9646    -4.3159 C       0      r0     0.0048
   4871 C          -20.8007   -19.2712    -5.2506 C       0      r0     0.0135
   4872 C          -20.0022   -19.7151    -6.3693 C       0      r0    -0.0048
   4873 C          -19.7888   -16.7803    -2.4849 C       7      r7     0.0170
   4874 C          -19.0014   -20.0528    -3.3096 C       7      r7    -0.0013
   4875 C          -18.9522   -17.3566    -3.5438 C       7      r7    -0.0012
   4876 C          -18.5954   -18.7294    -3.8876 C       7      r7    -0.0012
   4877 C          -18.5693   -19.8854    -6.0656 C       0      r0    -0.0011
   4878 C          -18.2977   -16.6018    -4.6619 C       5      r5     0.0047
   4879 C          -18.0859   -18.7457    -5.2402 C       5      r5    -0.0007
   4880 C          -17.9480   -17.4069    -5.8095 C       5      r5     0.0061
   4881 C          -17.0742   -16.6791    -6.8825 C       5      r5     0.0016
   4882 C          -13.9285   -19.9659    -4.7826 C       7      r7    -0.0241
   4883 C          -13.6053   -17.6836    -6.1002 C       7      r7    -0.0374
   4884 C          -13.5228   -18.6454    -4.9827 C       7      r7    -0.0476
   4885 C          -13.1032   -16.3789    -5.7747 C       6      r6     0.0230
   4886 C          -13.1441   -15.9676    -4.3616 C       7      r7     0.0211
   4887 C          -12.9902   -16.9215    -3.3818 C       7      r7    -0.0421
   4888 C          -12.9496   -18.2231    -3.7909 C       5      r5     0.2715
   4889 O          -12.8189   -19.1969    -2.7470 O       5      r5    -0.5179
   4890 C          -10.5005   -19.4139    -6.7141 C       7      r7    -0.0008
   4891 C          -10.3983   -19.9053    -5.2661 C       7      r7     0.0049
   4892 C          -10.1436   -19.1192    -2.1144 C       7      r7     0.0295
   4893 C          -10.0674   -17.6324    -2.1607 C       7      r7     0.0170
   4894 C           -9.5269   -17.3522    -5.8808 C       7      r7     0.0511
   4895 C           -9.3629   -19.4422    -4.4848 C       7      r7     0.0053
   4896 C           -9.3686   -19.8858    -3.0882 C       7      r7    -0.0011
   4897 C           -9.0643   -17.3831    -2.9398 C       7      r7     0.0184
   4898 C           -9.1711   -16.1589    -6.4840 C       7      r7    -0.0316
   4899 C           -8.5612   -18.2093    -5.1568 C       7      r7    -0.0104
   4900 C           -8.0525   -17.4737    -3.8850 C       7      r7     0.0122
   4901 C           -7.4339   -18.7980    -6.1289 C       7      r7    -0.0011
   4902 C           -6.7051   -17.9915    -3.4687 C       6      r6    -0.0102
   4903 C           -6.5213   -19.6567    -5.3996 C       6      r6     0.0001
   4904 C           -6.2029   -19.3211    -3.9411 C       6      r6     0.0016
   4905 C           -5.9580   -16.7539    -3.5997 C       5      r5     0.0013
   4906 C           -4.5284   -16.8945    -3.9619 C       5      r5    -0.0012
   4907 C           -4.3306   -16.2754    -5.2456 C       5      r5     0.0004
   4908 C           -3.3819   -17.4268    -3.1902 C       6      r6     0.0001
   4909 C           -3.2107   -20.1357    -2.6486 C       7      r7     0.0003
   4910 C           -3.2204   -16.7038    -6.1455 C       6      r6    -0.0002
   4911 C           -2.5158   -18.2420    -4.0638 C       6      r6     0.0023
   4912 C           -2.4187   -17.8782    -5.4056 C       6      r6    -0.0002
   4913 C           -2.2543   -19.6143    -3.6248 C       7      r7     0.0023
   4914 C           -1.5335   -20.3690    -4.6262 C       7      r7     0.0003
   4915 C           -1.4957   -18.4933    -6.2367 C       6      r6    -0.0001
   4916 C           -0.8067   -19.6230    -5.6817 C       7      r7     0.0022
   4917 C            0.3225   -19.8822    -6.4475 C       7      r7    -0.0002
   4918 C            2.0222   -17.3643    -6.3173 C       7      r7     0.0006
   4919 C            1.9788   -16.8032    -2.4777 C       7      r7     0.0007
   4920 C            2.3467   -17.9128    -5.0094 C       7      r7     0.0002
   4921 C            2.5926   -19.4300    -2.1789 C       7      r7    -0.0007
   4922 C            2.4995   -16.7401    -3.9819 C       7      r7     0.0002
   4923 C            3.3164   -19.8540    -3.3712 C       7      r7     0.0014
   4924 C            3.3152   -18.8981    -4.5606 C       7      r7     0.0007
   4925 C            3.9515   -16.2135    -3.9044 C       7      r7     0.0004
   4926 C            4.6315   -18.3719    -4.8500 C       7      r7     0.0013
   4927 C            4.9297   -17.0342    -4.3331 C       7      r7     0.0003
   4928 C            5.6972   -19.3472    -4.9916 C       7      r7     0.0005
   4929 C            6.1666   -16.4854    -3.8016 C       7      r7     0.0013
   4930 C            6.4674   -17.6663    -2.7819 C       7      r7     0.0023
   4931 C            6.8114   -16.0820    -6.4443 C       6      r6     0.0005
   4932 C            6.8893   -18.8175    -5.6974 C       7      r7     0.0004
   4933 C            7.3444   -16.3668    -5.0669 C       7      r7    -0.0008
   4934 C            7.5461   -18.4051    -3.3089 C       7      r7    -0.0004
   4935 C            7.8449   -17.9874    -4.8450 C       7      r7    -0.0010
   4936 C            8.0381   -19.5920    -2.6341 C       7      r7    -0.0010
   4937 C            9.2640   -17.9150    -5.4095 C       6      r6    -0.0010
   4938 C            9.7966   -18.3962    -6.6876 C       7      r7    -0.0013
   4939 C           10.2050   -16.8920    -4.9805 C       7      r7    -0.0011
   4940 C           10.2347   -19.7658    -6.6967 C       7      r7    -0.0010
   4941 C           10.4485   -20.4910    -5.4157 C       5      r5    -0.0011
   4942 C           11.0979   -19.6819    -4.4367 C       5      r5    -0.0001
   4943 C           11.0791   -20.4372    -3.2206 C       5      r5    -0.0039
   4944 C           11.6472   -17.1671    -4.7378 C       7      r7     0.0023
   4945 C           12.0705   -18.6656    -5.0029 C       5      r5     0.0006
   4946 C           12.3101   -16.9015    -3.2888 C       7      r7    -0.0028
   4947 C           12.4654   -19.1234    -6.3444 C       6      r6     0.0027
   4948 C           12.6069   -16.1865    -5.5731 C       7      r7    -0.0033
   4949 C           13.2068   -20.3206    -6.3074 C       5      r5     0.0073
   4950 C           13.3879   -18.8073    -4.1921 C       5      r5     0.0137
   4951 C           13.2984   -16.9287    -6.6991 C       6      r6     0.0374
   4952 C           13.4339   -17.8072    -3.3162 C       5      r5     0.0099
   4953 C           14.3378   -19.8203    -4.2853 C       6      r6     0.0250
   4954 C           15.1813   -20.0113    -3.1382 C       6      r6     0.0058
   4955 O           15.9932   -17.5116    -5.7539 O       6      r6    -0.5166
   4956 C           17.0756   -16.9378    -4.8080 C       6      r6     0.2408
   4957 C           17.5501   -17.5771    -3.7380 C       0      r0    -0.0451
   4958 C           18.0201   -18.1957    -2.6279 C       0      r0     0.0196
   4959 C           18.2688   -20.1277    -5.7007 C       5      r5     0.0113
   4960 C           18.8828   -19.4127    -2.8561 C       0      r0    -0.0019
   4961 C           19.5542   -19.6968    -5.1241 C       5      r5    -0.0033
   4962 C           19.9733   -19.2021    -3.8289 C       6      r6     0.0004
   4963 C           20.4757   -19.4232    -6.2267 C       5      r5    -0.0001
   4964 C           21.3854   -18.7563    -3.6076 C       6      r6    -0.0018
   4965 C           21.8973   -18.0080    -2.4291 C       6      r6    -0.0004
   4966 C           21.8042   -18.8849    -5.9967 C       6      r6    -0.0047
   4967 C           22.3691   -18.8577    -4.6366 C       6      r6    -0.0040
   4968 C           23.1697   -16.8489    -6.3865 C       7      r7    -0.0009
   4969 C           23.6447   -18.1617    -4.5112 C       6      r6    -0.0005
   4970 C           23.5384   -16.7550    -4.9972 C       7      r7     0.0016
   4971 C           24.3289   -18.1336    -3.2090 C       6      r6     0.0003
   4972 C          -25.1747   -14.5820    -5.4069 C       7      r7     0.0006
   4973 C          -24.3157   -13.6282    -2.4966 C       6      r6    -0.0018
   4974 C          -23.8579   -14.0582    -5.0545 C       6      r6     0.0049
   4975 C          -23.4776   -13.8750    -3.6343 C       6      r6    -0.0023
   4976 C          -22.9130   -13.7001    -6.1059 C       6      r6     0.0001
   4977 C          -22.0544   -14.2923    -3.4730 C       6      r6     0.0022
   4978 C          -21.7191   -15.3048    -2.5760 C       6      r6     0.0002
   4979 C          -21.5088   -13.2155    -5.7133 C       7      r7     0.0080
   4980 C          -21.0868   -13.7538    -4.5138 C       7      r7     0.0056
   4981 C          -20.6613   -12.2356    -6.4420 C       7      r7    -0.0008
   4982 C          -20.2965   -15.3898    -2.4765 C       6      r6     0.0093
   4983 C          -19.6904   -13.7040    -4.0170 C       7      r7    -0.0018
   4984 C          -19.4836   -14.0259    -2.5890 C       6      r6     0.0024
   4985 C          -19.2104   -12.2039    -6.4581 C       7      r7     0.0003
   4986 C          -18.5694   -14.0746    -4.9385 C       7      r7     0.0033
   4987 C          -18.3150   -13.2783    -6.1355 C       7      r7     0.0017
   4988 C          -17.7312   -15.2651    -4.9617 C       5      r5    -0.0019
   4989 C          -16.9741   -13.2668    -6.7476 C       7      r7    -0.0035
   4990 C          -16.8876   -15.5466    -6.1194 C       5      r5     0.0006
   4991 C          -16.3307   -12.6684    -2.5693 C       6      r6    -0.0104
   4992 C          -16.0706   -12.2381    -6.5830 C       7      r7    -0.0018
   4993 C          -15.2801   -15.3372    -2.3628 C       7      r7     0.0022
   4994 C          -15.1067   -13.1037    -3.2060 C       6      r6     0.0007
   4995 C          -14.7730   -14.0570    -6.7376 C       5      r5    -0.0028
   4996 C          -14.7928   -12.6692    -6.7834 C       5      r5    -0.0016
   4997 C          -14.6336   -14.4057    -3.2518 C       7      r7    -0.0109
   4998 C          -14.3375   -12.1323    -3.7874 C       6      r6    -0.0021
   4999 C          -13.4385   -14.7140    -3.8150 C       7      r7     0.0192
   5000 C          -13.0456   -12.4183    -4.1632 C       5      r5    -0.0007
   5001 C          -12.5078   -13.6754    -3.9810 C       5      r5    -0.0515
   5002 C          -12.3381   -11.8489    -5.2809 C       5      r5     0.0015
   5003 C          -11.2777   -12.8089    -5.7538 C       5      r5    -0.0668
   5004 C          -11.2808   -13.7940    -4.7285 C       5      r5     0.2749
   5005 O          -10.4641   -14.9632    -4.7407 O       6      r6    -0.5061
   5006 C           -9.4262   -14.8763    -6.0115 C       6      r6     0.2034
   5007 C           -9.2315   -11.7366    -3.0784 C       5      r5     0.0066
   5008 C           -8.0110   -14.2506    -5.6383 C       0      r0    -0.0232
   5009 C           -7.8210   -11.9109    -3.5202 C       6      r6     0.0042
   5010 C           -7.4332   -14.4664    -4.2854 C       6      r6     0.0315
   5011 C           -7.3738   -13.5233    -6.6063 C       0      r0     0.0023
   5012 C           -7.0447   -13.0845    -3.9327 C       6      r6    -0.0017
   5013 C           -6.4491   -15.5200    -4.3372 C       5      r5    -0.0046
   5014 C           -5.7805   -12.8790    -4.6643 C       6      r6    -0.0001
   5015 C           -5.4115   -15.3008    -5.3586 C       5      r5     0.0010
   5016 C           -5.1580   -13.8474    -5.5187 C       6      r6    -0.0009
   5017 C           -5.0279   -11.6328    -4.5127 C       6      r6    -0.0015
   5018 C           -4.2162   -13.4818    -6.5685 C       6      r6     0.0000
   5019 C           -3.8125   -11.3813    -5.2525 C       6      r6    -0.0006
   5020 C           -3.3715   -12.3278    -6.2983 C       6      r6    -0.0003
   5021 C           -2.2210   -15.4955    -6.4322 C       7      r7    -0.0005
   5022 C           -2.0373   -13.8527    -3.0308 C       5      r5     0.0000
   5023 C           -1.8483   -14.4874    -4.1399 C       0      r0     0.0003
   5024 C           -1.3452   -14.9496    -5.3996 C       7      r7     0.0007
   5025 C           -1.1696   -12.4681    -2.7645 C       7      r7     0.0008
   5026 C           -0.4162   -11.5157    -3.8215 C       5      r5     0.0010
   5027 C           -0.2186   -13.9105    -5.4868 C       7      r7     0.0001
   5028 C            0.0358   -13.2936    -6.7907 C       7      r7     0.0001
   5029 C            0.7520   -11.8242    -4.4807 C       5      r5     0.0010
   5030 C            0.7825   -13.3626    -4.5694 C       0      r0     0.0002
   5031 C            1.6443   -14.3674    -3.9987 C       7      r7     0.0013
   5032 C            1.7213   -15.9247    -6.0731 C       7      r7    -0.0003
   5033 C            1.7211   -15.5955    -4.6621 C       7      r7    -0.0002
   5034 C            2.1439   -14.2472    -2.4761 C       7      r7     0.0003
   5035 C            4.4582   -14.9288    -3.2820 C       7      r7     0.0008
   5036 C            5.0470   -11.4918    -5.0878 C       7      r7    -0.0007
   5037 C            5.6432   -12.6165    -5.7816 C       7      r7    -0.0010
   5038 C            5.8351   -15.1840    -3.3380 C       7      r7    -0.0002
   5039 C            6.2224   -14.7325    -6.6801 C       5      r5    -0.0009
   5040 C            6.2865   -12.8563    -2.7962 C       7      r7    -0.0004
   5041 C            6.5677   -13.7555    -5.6695 C       7      r7    -0.0016
   5042 C            6.9471   -11.6310    -3.3889 C       7      r7    -0.0004
   5043 C            6.8930   -14.1873    -3.0763 C       7      r7     0.0005
   5044 C            7.5861   -13.9738    -4.6151 C       7      r7    -0.0008
   5045 C            8.1845   -12.4221    -4.2224 C       7      r7    -0.0003
   5046 C            8.2991   -15.3080    -4.7672 C       6      r6    -0.0014
   5047 C            8.7813   -11.7077    -5.3641 C       6      r6    -0.0008
   5048 C            9.2465   -12.5092    -3.1101 C       7      r7    -0.0001
   5049 C            9.2523   -13.9491    -2.3191 C       7      r7    -0.0003
   5050 C            9.7694   -12.5188    -6.1555 C       7      r7     0.0151
   5051 C            9.7283   -15.4773    -4.9400 C       7      r7    -0.0009
   5052 C           10.4733   -14.6947    -2.3828 C       7      r7    -0.0024
   5053 C           10.6124   -13.0847    -5.1175 C       7      r7    -0.0016
   5054 C           10.6716   -12.2119    -3.8975 C       7      r7     0.0013
   5055 C           10.8777   -14.5097    -5.0603 C       7      r7     0.0000
   5056 C           11.5017   -14.5155    -3.4028 C       7      r7    -0.0027
   5057 C           11.7034   -13.0737    -3.1941 C       7      r7    -0.0036
   5058 C           11.8300   -14.9498    -6.3573 C       7      r7    -0.0016
   5059 C           12.6269   -12.4047    -2.4142 C       7      r7     0.0013
   5060 C           12.7354   -13.7095    -6.6557 C       7      r7     0.0138
   5061 C           12.9350   -15.4494    -3.3273 C       7      r7    -0.0035
   5062 C           13.4641   -15.4369    -4.6216 C       5      r5     0.0124
   5063 C           13.8164   -13.4482    -5.7616 C       7      r7    -0.0055
   5064 C           14.2610   -12.1207    -5.4019 C       7      r7    -0.0049
   5065 C           14.3493   -14.4018    -4.9361 C       5      r5    -0.0003
   5066 C           15.0655   -12.4295    -4.2432 C       5      r5    -0.0015
   5067 C           15.1955   -13.7847    -4.0291 C       5      r5     0.0003
   5068 C           16.4172   -14.1353    -3.3007 C       5      r5    -0.0015
   5069 C           16.7525   -11.7204    -2.5366 C       6      r6     0.0049
   5070 C           16.9728   -14.6698    -5.9833 C       7      r7     0.0418
   5071 C           17.1236   -13.1382    -2.5104 C       5      r5     0.0063
   5072 C           17.3783   -15.5171    -4.9218 C       6      r6    -0.0596
   5073 C           17.4929   -14.9210    -3.6913 C       5      r5     0.0076
   5074 C           17.7321   -13.5038    -6.3341 C       7      r7    -0.0113
   5075 C           18.6192   -14.7864    -2.8258 C       7      r7    -0.0046
   5076 C           19.1070   -13.6512    -5.8641 C       7      r7     0.0016
   5077 C           19.7769   -12.5753    -5.2064 C       7      r7    -0.0018
   5078 C           19.7734   -15.6787    -2.8674 C       7      r7    -0.0022
   5079 C           20.1768   -14.4916    -6.5705 C       7      r7     0.0002
   5080 C           20.9751   -14.9324    -3.3299 C       7      r7    -0.0021
   5081 C           21.3109   -12.7760    -5.6359 C       7      r7    -0.0002
   5082 C           21.4821   -13.8132    -2.6145 C       7      r7    -0.0004
   5083 C           21.3751   -14.3508    -5.7342 C       7      r7    -0.0033
   5084 C           21.7787   -15.1463    -4.5791 C       7      r7    -0.0027
   5085 C           22.2390   -12.2089    -4.5322 C       7      r7    -0.0006
   5086 C           22.4850   -12.9465    -3.3051 C       7      r7    -0.0003
   5087 C           23.2319   -15.5048    -4.3386 C       7      r7    -0.0017
   5088 C           23.8595   -12.7024    -2.7991 C       7      r7     0.0006
   5089 C           24.4824   -14.7593    -4.1905 C       7      r7     0.0019
   5090 C           24.7674   -13.7737    -3.0909 C       6      r6     0.0002
   5091 C           25.0007   -15.0350    -6.7914 C       7      r7     0.0041
   5092 C          -25.0316    -9.7203    -4.0128 C       7      r7     0.0000
   5093 C          -24.5924   -10.3721    -2.8444 C       6      r6     0.0007
   5094 C          -24.2804   -10.0735    -6.4528 C       7      r7    -0.0019
   5095 C          -24.0098    -9.7367    -5.0460 C       7      r7    -0.0010
   5096 C          -23.1324   -10.7645    -2.7439 C       6      r6    -0.0016
   5097 C          -22.5932    -9.3811    -4.7120 C       7      r7     0.0000
   5098 C          -22.0930   -10.1641    -3.5914 C       7      r7    -0.0022
   5099 C          -21.9655    -8.2424    -5.4410 C       7      r7     0.0005
   5100 C          -21.8537    -8.5074    -6.8345 C       7      r7    -0.0001
   5101 C          -21.1827    -7.1142    -4.8457 C       7      r7     0.0012
   5102 C          -21.2531    -8.1864    -2.6891 C       7      r7     0.0014
   5103 C          -20.7731    -9.5409    -3.1616 C       7      r7    -0.0012
   5104 C          -19.4356    -9.5377    -3.6282 C       0      r0    -0.0011
   5105 C          -18.6236   -10.8617    -6.7158 C       7      r7    -0.0016
   5106 C          -18.1902    -9.4214    -3.8358 C       0      r0     0.0010
   5107 C          -17.1743    -8.8948    -6.5426 C       6      r6     0.0012
   5108 C          -16.7940    -9.3238    -4.0885 C       6      r6     0.0005
   5109 C          -16.4837   -11.2670    -2.3851 C       6      r6    -0.0001
   5110 C          -16.2249    -8.5247    -5.4353 C       6      r6     0.0010
   5111 C          -16.0839   -10.3577    -3.5567 C       6      r6    -0.0000
   5112 C          -15.9354    -7.0236    -5.4607 C       5      r5     0.0016
   5113 C          -14.8940   -10.8655    -4.1933 C       6      r6    -0.0011
   5114 C          -14.8714    -9.1515    -5.8851 C       6      r6    -0.0004
   5115 C          -14.3351   -10.3672    -5.4355 C       6      r6    -0.0006
   5116 C          -13.7726    -7.6566    -3.0088 C       6      r6     0.0005
   5117 C          -13.6679    -7.0509    -4.3427 C       6      r6     0.0002
   5118 C          -13.1489   -11.0249    -6.1040 C       6      r6     0.0010
   5119 C          -12.9318    -7.6774    -6.6261 C       5      r5     0.0006
   5120 C          -12.8865    -8.7018    -2.6286 C       6      r6     0.0004
   5121 C          -12.3888    -7.2793    -5.1895 C       6      r6     0.0001
   5122 C          -11.8939    -9.1236    -3.6484 C       6      r6     0.0005
   5123 C          -11.4268    -8.3640    -4.7358 C       6      r6    -0.0001
   5124 C          -11.2623   -10.3844    -3.2236 C       5      r5    -0.0004
   5125 C          -10.3219    -8.9840    -5.5042 C       6      r6    -0.0009
   5126 C          -10.1602   -10.4426    -5.3230 C       6      r6     0.0006
   5127 C          -10.1114   -10.9538    -3.9380 C       5      r5    -0.0019
   5128 C           -9.6301   -11.1576    -6.4876 C       6      r6     0.0041
   5129 C           -9.2777    -7.6091    -2.5623 C       5      r5    -0.0011
   5130 C           -8.9879    -8.4683    -5.6423 C       7      r7     0.0001
   5131 C           -8.7776    -6.7097    -3.6745 C       6      r6     0.0001
   5132 C           -8.5529    -7.2091    -5.0245 C       7      r7    -0.0002
   5133 C           -8.1230    -9.3047    -6.5197 C       7      r7    -0.0002
   5134 C           -7.3890    -9.2824    -2.9580 C       5      r5    -0.0013
   5135 C           -7.1020   -10.6347    -3.4160 C       5      r5    -0.0015
   5136 C           -6.2091    -8.4057    -3.0618 C       5      r5     0.0000
   5137 C           -5.7214   -10.5439    -3.8640 C       5      r5    -0.0013
   5138 C           -5.2191    -9.2061    -3.7318 C       5      r5    -0.0004
   5139 C           -3.7915    -9.0048    -4.1174 C       6      r6     0.0012
   5140 C           -3.3985    -9.9793    -5.1384 C       6      r6     0.0009
   5141 C           -3.2685    -7.6460    -4.2115 C       6      r6     0.0010
   5142 C           -3.1929    -7.2311    -5.6332 C       6      r6    -0.0012
   5143 C           -2.6012    -9.5235    -6.2652 C       6      r6     0.0002
   5144 C           -2.4970    -8.1766    -6.5239 C       6      r6    -0.0012
   5145 C           -1.6394    -6.9008    -2.4371 C       5      r5    -0.0014
   5146 C           -1.2655    -9.4382    -2.6739 C       6      r6     0.0023
   5147 C           -0.4730   -10.0087    -3.7959 C       5      r5     0.0007
   5148 C            0.4707    -9.3947    -4.7513 C       7      r7    -0.0008
   5149 C            1.0063    -7.9589    -4.6223 C       7      r7    -0.0004
   5150 C            1.3364   -10.5488    -5.0659 C       7      r7     0.0011
   5151 C            1.4927    -6.8927    -5.4693 C       7      r7    -0.0006
   5152 C            1.5867    -7.7499    -3.2976 C       7      r7    -0.0019
   5153 C            2.2709    -8.9842    -2.7823 C       7      r7     0.0013
   5154 C            2.7775   -10.3706    -4.8435 C       7      r7     0.0002
   5155 C            3.1897    -9.8206    -3.5166 C       7      r7     0.0016
   5156 C            3.7521   -11.1635    -5.6001 C       5      r5    -0.0004
   5157 C            4.3005    -6.9507    -6.7810 C       5      r5     0.0009
   5158 C            4.5477    -9.9523    -3.0452 C       7      r7     0.0002
   5159 C            5.2421    -7.2714    -5.7338 C       7      r7    -0.0015
   5160 C            5.6717   -10.6635    -4.0091 C       7      r7    -0.0008
   5161 C            5.7270    -8.6449    -5.7150 C       7      r7    -0.0013
   5162 C            6.1719    -9.3231    -4.5067 C       7      r7    -0.0007
   5163 C            6.9472    -8.6140    -3.5066 C       7      r7    -0.0008
   5164 C            7.3364    -7.2212    -3.5563 C       7      r7    -0.0002
   5165 C            7.7429   -10.7825    -2.4506 C       7      r7    -0.0001
   5166 C            8.4129    -6.8397    -2.7348 C       7      r7     0.0003
   5167 C            8.9653   -10.2684    -5.5978 C       5      r5     0.0128
   5168 C            9.7290    -8.0632    -5.6130 C       7      r7     0.0057
   5169 C            9.8169    -9.2807    -4.8784 C       7      r7     0.0052
   5170 C           10.5667    -6.7686    -5.8458 C       7      r7     0.0031
   5171 C           10.9473    -9.5368    -3.8988 C       7      r7     0.0021
   5172 C           11.4067    -8.3189    -3.2505 C       7      r7    -0.0025
   5173 C           11.5409   -10.8348    -3.6493 C       5      r5     0.0004
   5174 C           12.4849    -7.6256    -4.0808 C       7      r7     0.0009
   5175 C           12.5323   -10.9455    -2.6713 C       5      r5    -0.0002
   5176 C           12.9643    -8.7917    -6.4486 C       7      r7     0.0343
   5177 C           13.1042   -10.3075    -6.5840 C       7      r7    -0.0365
   5178 C           13.2698    -8.6098    -4.9778 C       7      r7    -0.0032
   5179 C           13.9839   -10.7710    -5.6311 C       7      r7     0.0034
   5180 C           14.0885    -9.6876    -4.5702 C       5      r5     0.0021
   5181 C           14.7462   -10.1626    -3.3393 C       6      r6    -0.0014
   5182 C           15.6058   -11.3761    -3.4497 C       6      r6    -0.0038
   5183 C           19.0063    -7.7653    -3.6996 C       0      r0    -0.0005
   5184 C           19.1725   -10.6768    -6.5886 C       7      r7    -0.0004
   5185 C           19.4653   -10.2095    -4.1737 C       7      r7     0.0006
   5186 C           19.2699   -11.1816    -5.1954 C       7      r7    -0.0018
   5187 C           19.6747    -8.6905    -4.4161 C       7      r7     0.0005
   5188 C           19.9167   -10.5203    -2.8081 C       6      r6    -0.0011
   5189 C           20.6313    -8.0195    -5.3855 C       7      r7    -0.0007
   5190 C           20.6606    -8.5782    -6.7235 C       7      r7     0.0015
   5191 C           21.2573    -9.9186    -2.5097 C       7      r7     0.0006
   5192 C           22.2854    -9.7993    -3.5916 C       7      r7     0.0001
   5193 C           22.6613   -10.8294    -4.6631 C       7      r7     0.0009
   5194 C           22.4227    -7.2908    -3.1770 C       7      r7    -0.0001
   5195 C           22.8798   -10.2201    -5.9832 C       7      r7     0.0006
   5196 C           22.9716    -8.6116    -3.6421 C       7      r7    -0.0007
   5197 C           23.8586    -9.1467    -6.3543 C       7      r7     0.0013
   5198 C           24.4164    -8.0296    -5.5959 C       7      r7     0.0009
   5199 C           24.4540    -8.4694    -4.0701 C       7      r7     0.0010
   5200 C           25.1052    -7.4338    -3.1725 C       5      r5     0.0004
   5201 C          -24.9959    -5.7939    -5.0839 C       7      r7     0.0002
   5202 C          -24.7223    -6.2994    -3.7243 C       7      r7     0.0003
   5203 C          -24.7860    -4.3891    -5.4343 C       7      r7     0.0000
   5204 C          -23.7705    -3.5479    -4.7349 C       7      r7     0.0002
   5205 C          -23.7750    -5.8823    -2.6629 C       7      r7     0.0002
   5206 C          -22.8894    -4.7992    -2.5337 C       7      r7    -0.0001
   5207 C          -22.9326    -3.7332    -3.5413 C       7      r7     0.0001
   5208 C          -21.7512    -2.9061    -3.4228 C       6      r6     0.0000
   5209 C          -21.3058    -2.2329    -5.9150 C       0      r0    -0.0000
   5210 C          -21.3287    -3.6914    -6.1718 C       6      r6     0.0001
   5211 C          -20.8317    -6.0412    -5.6854 C       7      r7     0.0001
   5212 C          -20.7353    -7.0289    -3.4294 C       7      r7     0.0003
   5213 C          -20.5959    -4.6461    -5.3210 C       7      r7    -0.0000
   5214 C          -19.5888    -6.2551    -2.9997 C       7      r7    -0.0001
   5215 C          -19.2473    -4.3675    -4.7608 C       7      r7    -0.0004
   5216 C          -18.7601    -5.2658    -3.7234 C       7      r7     0.0001
   5217 C          -18.1597    -3.8118    -5.5810 C       7      r7     0.0009
   5218 C          -17.5047    -4.8689    -3.0628 C       5      r5     0.0003
   5219 C          -16.8671    -3.3539    -4.9872 C       6      r6     0.0002
   5220 C          -16.5164    -6.2835    -6.5552 C       7      r7    -0.0002
   5221 C          -16.4706    -4.0130    -3.8004 C       6      r6    -0.0006
   5222 C          -14.9829    -4.0757    -3.6363 C       0      r0    -0.0012
   5223 C          -14.6784    -6.3368    -5.0913 C       5      r5     0.0005
   5224 C          -14.4978    -5.2608    -6.1515 C       7      r7     0.0004
   5225 C          -14.4044    -5.1483    -2.8189 C       6      r6    -0.0008
   5226 C          -14.0494    -3.0846    -4.2233 C       7      r7     0.0015
   5227 C          -13.5732    -4.1483    -6.4814 C       7      r7    -0.0006
   5228 C          -13.2038    -3.2631    -5.3915 C       7      r7    -0.0003
   5229 C          -11.9515    -2.4423    -5.5849 C       7      r7    -0.0010
   5230 C          -11.8191    -4.8714    -2.9120 C       6      r6     0.0003
   5231 C          -11.4945    -5.8825    -5.3399 C       6      r6    -0.0003
   5232 C          -11.2062    -4.9282    -4.3071 C       6      r6     0.0000
   5233 C          -10.9525    -5.5587    -6.5886 C       6      r6     0.0003
   5234 C          -10.7294    -3.1828    -5.9063 C       7      r7    -0.0015
   5235 C          -10.2214    -3.8871    -4.7326 C       6      r6     0.0002
   5236 C           -9.8475    -3.5533    -2.3432 C       7      r7    -0.0022
   5237 C           -9.5107    -3.1887    -3.6909 C       5      r5     0.0014
   5238 C           -7.8903    -5.6327    -3.2547 C       6      r6    -0.0001
   5239 C           -8.0028    -6.1838    -5.9390 C       7      r7     0.0003
   5240 C           -7.7539    -4.7584    -5.6138 C       5      r5    -0.0001
   5241 C           -7.1857    -4.7805    -4.2793 C       6      r6    -0.0003
   5242 C           -6.4963    -2.0764    -5.7510 C       0      r0    -0.0010
   5243 C           -5.7552    -4.5917    -4.0710 C       6      r6    -0.0006
   5244 C           -5.1737    -2.7341    -5.8051 C       5      r5    -0.0017
   5245 C           -5.1046    -5.3626    -3.0135 C       6      r6     0.0013
   5246 C           -4.8936    -3.9331    -5.0769 C       5      r5    -0.0014
   5247 C           -4.0240    -6.1199    -6.0924 C       7      r7    -0.0003
   5248 C           -3.7677    -4.7069    -5.6968 C       7      r7    -0.0010
   5249 C           -3.6673    -5.4862    -2.7028 C       6      r6    -0.0007
   5250 C           -3.2538    -3.8260    -6.6995 C       7      r7    -0.0013
   5251 C           -2.8955    -6.6460    -3.1686 C       6      r6     0.0011
   5252 C           -0.9248    -4.6144    -6.9348 C       5      r5     0.0038
   5253 C           -0.2231    -3.4914    -6.4511 C       7      r7     0.0048
   5254 C            0.9018    -6.2401    -6.6394 C       7      r7    -0.0016
   5255 C            1.1698    -3.7570    -6.5242 C       7      r7     0.0094
   5256 C            2.2843    -6.4446    -3.2273 C       5      r5    -0.0023
   5257 C            2.2099    -2.7339    -6.7125 C       7      r7     0.0484
   5258 C            2.3847    -6.0364    -4.5931 C       7      r7    -0.0023
   5259 C            3.5487    -5.3487    -5.1331 C       7      r7    -0.0020
   5260 C            3.7564    -5.6418    -6.6035 C       7      r7    -0.0052
   5261 C            4.8461    -5.1036    -4.4814 C       6      r6    -0.0014
   5262 C            5.2686    -4.0166    -3.5123 C       6      r6    -0.0011
   5263 C            5.8019    -6.0786    -5.0225 C       7      r7    -0.0012
   5264 C            6.1619    -2.8639    -3.8998 C       6      r6    -0.0015
   5265 C            6.4271    -2.5779    -5.2643 C       5      r5    -0.0016
   5266 C            6.4718    -3.4768    -6.4127 C       5      r5    -0.0017
   5267 C            7.1466    -6.2136    -4.5132 C       7      r7    -0.0013
   5268 C            8.0264    -3.6703    -6.4506 C       7      r7    -0.0029
   5269 C            8.1554    -5.2396    -4.3317 C       5      r5    -0.0020
   5270 C            8.3188    -2.2910    -6.2772 C       7      r7     0.0018
   5271 C            8.6812    -4.3004    -5.2304 C       7      r7    -0.0030
   5272 C            8.8734    -5.6016    -3.1887 C       7      r7    -0.0008
   5273 C            9.8311    -4.7806    -2.6098 C       7      r7    -0.0019
   5274 C            9.9426    -3.7347    -4.8857 C       7      r7     0.0003
   5275 C           10.3690    -3.8470    -3.5010 C       6      r6    -0.0014
   5276 C           10.8154    -3.1291    -5.9129 C       7      r7    -0.0044
   5277 C           11.4289    -2.9067    -3.0630 C       5      r5    -0.0023
   5278 C           11.7722    -6.5628    -5.0685 C       7      r7    -0.0012
   5279 C           12.7772    -5.9046    -5.8183 C       7      r7     0.0017
   5280 C           13.2972    -6.6520    -3.0970 C       6      r6    -0.0040
   5281 C           13.8539    -5.2041    -5.0926 C       6      r6    -0.0090
   5282 C           14.2342    -5.7742    -3.7775 C       6      r6    -0.0006
   5283 C           14.6858    -4.2758    -5.7783 C       7      r7     0.0083
   5284 C           15.5852    -5.4063    -3.1871 C       7      r7    -0.0033
   5285 C           15.8504    -3.5784    -5.0016 C       7      r7    -0.0005
   5286 C           16.4731    -4.6646    -4.0464 C       7      r7    -0.0003
   5287 C           17.0329    -3.0366    -5.8090 C       7      r7     0.0012
   5288 C           17.8536    -4.5806    -4.0683 C       7      r7     0.0001
   5289 C           18.1536    -3.6926    -5.2742 C       5      r5     0.0001
   5290 C           18.4030    -6.7698    -3.0332 C       7      r7    -0.0008
   5291 C           18.8270    -5.3391    -3.2101 C       7      r7    -0.0003
   5292 C           19.4537    -3.1485    -5.5102 C       7      r7    -0.0007
   5293 C           20.6997    -3.9250    -5.3264 C       7      r7     0.0004
   5294 C           21.1898    -6.6753    -5.1981 C       7      r7     0.0001
   5295 C           21.5060    -3.6669    -4.1510 C       7      r7     0.0006
   5296 C           21.3099    -4.5391    -6.5542 C       7      r7    -0.0002
   5297 C           21.6386    -2.3186    -3.6312 C       7      r7     0.0010
   5298 C           21.5572    -5.9164    -6.4361 C       7      r7     0.0001
   5299 C           21.7196    -6.2210    -3.9167 C       7      r7    -0.0003
   5300 C           21.9368    -4.8758    -3.3885 C       7      r7     0.0012
   5301 C           22.8894    -2.3062    -2.8746 C       6      r6    -0.0001
   5302 C           24.7514    -6.6952    -5.9893 C       6      r6     0.0005
   5303 C           24.7768    -3.8354    -6.4523 C       6      r6     0.0001
   5304 C          -24.2760    -1.7551    -6.2898 C       7      r7    -0.0002
   5305 C          -24.0946    -1.2056    -3.7447 C       7      r7     0.0001
   5306 C          -23.9528     0.7988    -6.1413 C       7      r7     0.0001
   5307 C          -23.9362    -2.1177    -4.9335 C       7      r7     0.0001
   5308 C          -23.5177     0.1002    -3.7734 C       7      r7     0.0011
   5309 C          -23.4612     0.7005    -2.4347 C       7      r7    -0.0004
   5310 C          -23.1115     0.9137    -4.9404 C       7      r7     0.0004
   5311 C          -22.1973     1.4573    -2.2651 C       5      r5    -0.0005
   5312 C          -21.6934     1.1997    -5.2844 C       7      r7     0.0008
   5313 C          -21.3533    -1.9827    -4.5117 C       6      r6    -0.0001
   5314 C          -20.7772    -0.8135    -4.0124 C       6      r6     0.0002
   5315 C          -20.6398     0.3140    -4.8503 C       7      r7     0.0002
   5316 C          -19.7504    -1.1453    -3.1665 C       6      r6     0.0009
   5317 C          -19.3507     0.3592    -5.3822 C       7      r7     0.0003
   5318 C          -18.7371     0.9373    -6.5344 C       7      r7     0.0003
   5319 C          -18.4444    -0.6936    -3.3773 C       6      r6     0.0005
   5320 C          -18.2623    -0.0637    -4.6184 C       5      r5     0.0008
   5321 C          -17.4005    -1.2160    -2.6488 C       6      r6    -0.0002
   5322 C          -17.3273     0.6722    -6.6374 C       7      r7     0.0010
   5323 C          -17.0790     0.5707    -5.2019 C       5      r5    -0.0004
   5324 C          -16.4133     1.7117    -4.6178 C       0      r0     0.0006
   5325 C          -16.2904    -1.9828    -4.8886 C       0      r0    -0.0000
   5326 C          -16.2298    -1.5520    -3.4187 C       6      r6    -0.0011
   5327 C          -15.4730    -1.2776    -5.7496 C       0      r0     0.0001
   5328 C          -15.0832    -1.6379    -2.6032 C       6      r6     0.0029
   5329 C          -14.5976    -0.4953    -6.5380 C       0      r0    -0.0016
   5330 C          -14.0819     1.5742    -5.4824 C       0      r0    -0.0006
   5331 C          -13.8741    -1.8526    -3.4007 C       7      r7    -0.0070
   5332 C          -13.4350     0.3802    -5.9828 C       0      r0     0.0004
   5333 C          -13.2462     2.0179    -3.0271 C       5      r5     0.0036
   5334 C          -12.6910    -1.3850    -2.6878 C       7      r7     0.0388
   5335 C          -11.9895     0.0358    -5.7978 C       7      r7    -0.0028
   5336 C          -11.6894    -1.1522    -4.9681 C       7      r7     0.0066
   5337 C          -11.4732    -0.9511    -3.4974 C       7      r7    -0.0550
   5338 C          -10.8053     0.8678    -6.0606 C       7      r7    -0.0031
   5339 C          -10.4362    -0.2225    -2.9633 C       7      r7     0.2276
   5340 C           -9.6387     0.9587    -5.2205 C       7      r7     0.0050
   5341 C           -9.5673     0.5517    -3.6865 C       7      r7    -0.0424
   5342 C           -8.5157     1.6742    -5.6866 C       7      r7    -0.0005
   5343 C           -8.3162     0.7767    -2.9741 C       6      r6     0.0327
   5344 C           -8.2174    -2.3615    -3.6387 C       5      r5    -0.0030
   5345 C           -7.3693    -2.2116    -4.6947 C       0      r0     0.0007
   5346 C           -7.2864     1.4695    -4.9890 C       7      r7     0.0051
   5347 C           -7.2017     1.1482    -3.6035 C       5      r5    -0.0140
   5348 C           -6.1016     1.0277    -5.6394 C       7      r7    -0.0008
   5349 C           -5.8740     0.7311    -3.3223 C       5      r5     0.0011
   5350 C           -5.2764     0.7213    -4.5631 C       5      r5     0.0018
   5351 C           -3.9638     0.2558    -4.7849 C       6      r6    -0.0010
   5352 C           -3.9550    -0.6439    -2.5039 C       7      r7    -0.0005
   5353 C           -3.5432     0.2288    -6.1127 C       6      r6     0.0012
   5354 C           -3.3009    -0.4216    -3.7612 C       6      r6    -0.0026
   5355 C           -2.1563     0.0818    -6.3106 C       7      r7     0.0011
   5356 C           -1.9057    -0.6380    -3.9702 C       7      r7    -0.0020
   5357 C           -1.3439    -0.4690    -5.2611 C       7      r7    -0.0013
   5358 C           -1.1424    -0.8769    -2.7839 C       7      r7    -0.0004
   5359 C           -0.6093    -2.1791    -6.7081 C       7      r7     0.0113
   5360 C           -0.2445    -1.2080    -5.7670 C       7      r7     0.0002
   5361 C            0.1783    -0.4860    -2.8326 C       7      r7    -0.0036
   5362 C            1.0223    -1.0926    -5.1944 C       7      r7     0.0014
   5363 C            1.1702    -0.5571    -3.8547 C       7      r7    -0.0016
   5364 C            2.2310    -1.4844    -5.9422 C       7      r7    -0.0007
   5365 C            2.3152    -0.1630    -3.1411 C       7      r7     0.0015
   5366 C            3.5344    -0.9002    -5.9936 C       7      r7     0.0011
   5367 C            3.6864    -0.4673    -3.4437 C       7      r7     0.0020
   5368 C            4.2504    -0.4366    -4.7938 C       7      r7    -0.0031
   5369 C            4.6617    -0.0886    -2.4478 C       5      r5     0.0014
   5370 C            5.3642     0.4819    -4.7088 C       7      r7    -0.0021
   5371 C            5.6216     0.6787    -3.2341 C       7      r7    -0.0030
   5372 C            5.5946     2.0467    -2.7352 C       7      r7    -0.0019
   5373 C            5.4679     1.4044    -5.8074 C       7      r7    -0.0027
   5374 C            6.8085    -2.0242    -2.9109 C       6      r6    -0.0028
   5375 C            7.5589    -1.6533    -5.3779 C       7      r7    -0.0003
   5376 C            7.6638    -0.9150    -3.2111 C       6      r6    -0.0005
   5377 C            8.0456    -0.6724    -4.5165 C       7      r7     0.0019
   5378 C            8.5008     0.6644    -4.9607 C       7      r7     0.0091
   5379 C            8.6102     1.6661    -3.8979 C       7      r7     0.0076
   5380 C            8.8731     1.2498    -2.4992 C       7      r7     0.0006
   5381 C            8.8538     0.8102    -6.3625 C       7      r7     0.0062
   5382 C            9.4696     2.1060    -6.6792 C       7      r7     0.0220
   5383 C           11.6530     2.1343    -2.9504 C       5      r5     0.0400
   5384 C           11.6484    -1.9487    -5.4075 C       6      r6     0.0124
   5385 C           11.9963    -1.9481    -3.9237 C       5      r5     0.0073
   5386 C           12.2817     0.9384    -2.6477 C       0      r0     0.0178
   5387 C           12.5470    -1.6508    -6.3558 C       0      r0     0.0162
   5388 C           12.8454    -0.1449    -2.2502 C       6      r6     0.0045
   5389 O           12.5624     1.8752    -5.7183 O       7      r7    -0.4949
   5390 C           13.2293    -1.4544    -3.2486 C       5      r5     0.0080
   5391 C           14.4066    -1.3694    -4.2723 C       7      r7     0.0021
   5392 C           14.8435    -0.4878    -5.3785 C       7      r7     0.0229
   5393 C           14.8994    -1.0778    -6.7102 C       7      r7    -0.0012
   5394 C           15.4572    -2.3184    -4.0495 C       7      r7    -0.0049
   5395 C           15.6641     1.7111    -6.2932 C       7      r7     0.0155
   5396 C           15.6961     0.6778    -5.2198 C       7      r7     0.0070
   5397 C           16.5599    -1.7652    -3.2518 C       7      r7    -0.0009
   5398 C           16.6490     0.7513    -4.1132 C       7      r7    -0.0010
   5399 C           17.0066    -0.3488    -3.2676 C       7      r7    -0.0002
   5400 C           17.2622     2.1079    -3.8231 C       6      r6     0.0017
   5401 C           19.4301    -1.7072    -5.8289 C       7      r7    -0.0017
   5402 C           20.3998    -0.7291    -5.4134 C       7      r7     0.0003
   5403 C           20.7603     0.4146    -6.3548 C       6      r6     0.0006
   5404 C           21.5288    -1.2954    -4.7110 C       7      r7     0.0008
   5405 C           21.8210     1.4464    -6.1007 C       5      r5     0.0006
   5406 C           22.6327    -1.4923    -5.6715 C       5      r5     0.0004
   5407 C           23.9344    -1.7452    -5.1625 C       7      r7     0.0001
   5408 C           24.0153    -1.8226    -3.7151 C       7      r7     0.0001
   5409 C           24.7363    -2.2235    -6.4320 C       7      r7    -0.0002
   5410 C           25.2173    -1.5844    -2.9319 C       7      r7     0.0002
   5411 C          -25.0964     4.4892    -2.6862 C       5      r5    -0.0008
   5412 C          -24.8003     6.6827    -5.2714 C       7      r7    -0.0017
   5413 C          -24.7354     3.4400    -4.9341 C       6      r6     0.0000
   5414 C          -23.5701     6.2026    -5.8208 C       7      r7    -0.0006
   5415 C          -23.3547     3.6423    -4.5985 C       6      r6    -0.0006
   5416 C          -22.8181     3.6249    -3.2512 C       6      r6    -0.0020
   5417 C          -22.4718     3.5069    -5.8252 C       5      r5    -0.0003
   5418 C          -22.3248     6.5575    -5.1827 C       7      r7    -0.0011
   5419 C          -21.7053     2.6547    -2.8640 C       6      r6    -0.0014
   5420 C          -21.4015     2.5022    -5.7841 C       7      r7     0.0005
   5421 C          -20.9521     6.3479    -5.6092 C       7      r7    -0.0025
   5422 C          -20.2644     2.9720    -2.6553 C       6      r6    -0.0014
   5423 C          -20.2476     5.7804    -6.7440 C       7      r7    -0.0004
   5424 C          -20.1040     3.1138    -6.2492 C       7      r7     0.0008
   5425 C          -19.3633     3.6447    -4.9998 C       0      r0     0.0000
   5426 C          -19.2525     2.9797    -3.6574 C       0      r0     0.0013
   5427 C          -19.1723     5.9556    -3.8479 C       6      r6    -0.0012
   5428 C          -19.1036     6.0389    -2.3547 C       6      r6    -0.0030
   5429 C          -18.6635     4.9091    -4.8066 C       0      r0    -0.0004
   5430 C          -17.9223     3.1166    -3.0697 C       5      r5     0.0002
   5431 C          -17.8155     6.2866    -6.5618 C       7      r7     0.0001
   5432 C          -17.4736     5.1881    -5.6833 C       7      r7     0.0013
   5433 C          -16.6718     2.3798    -3.3238 C       5      r5    -0.0006
   5434 C          -16.1764     4.8886    -5.0663 C       7      r7     0.0001
   5435 C          -15.6380     2.7606    -2.4182 C       5      r5    -0.0005
   5436 C          -15.3924     3.7334    -5.7659 C       6      r6     0.0004
   5437 C          -15.3914     2.2880    -5.5209 C       0      r0    -0.0009
   5438 C          -15.1917     5.9041    -4.8321 C       7      r7    -0.0002
   5439 C          -14.8032     6.5005    -2.3922 C       0      r0    -0.0017
   5440 C          -14.5781     6.5642    -6.1820 C       7      r7     0.0015
   5441 C          -14.3342     6.2096    -3.7370 C       5      r5    -0.0014
   5442 C          -13.2504     2.1886    -4.4167 C       5      r5    -0.0004
   5443 C          -12.1498     2.9157    -4.8807 C       7      r7    -0.0002
   5444 C          -11.9902     2.5329    -2.6570 C       5      r5     0.0005
   5445 C          -11.8344     3.1134    -6.3242 C       7      r7    -0.0005
   5446 C          -11.3763     3.1735    -3.7683 C       7      r7     0.0020
   5447 C          -10.4983     3.6491    -6.5260 C       7      r7    -0.0017
   5448 C          -10.4963     4.2657    -3.4623 C       7      r7     0.0022
   5449 C          -10.1586     4.9393    -5.9166 C       7      r7    -0.0017
   5450 C          -10.0743     5.2369    -4.4836 C       7      r7    -0.0001
   5451 C           -9.4595     6.1097    -6.5179 C       7      r7    -0.0019
   5452 C           -9.4763     6.5193    -4.2603 C       7      r7     0.0015
   5453 C           -6.2413     5.7236    -6.4498 C       0      r0    -0.0003
   5454 C           -5.1353     5.2786    -5.5082 C       0      r0     0.0003
   5455 C           -5.1947     5.9836    -2.9882 C       6      r6     0.0009
   5456 C           -4.6332     6.1997    -4.4757 C       0      r0     0.0030
   5457 C           -4.2390     4.1262    -5.7116 C       5      r5     0.0007
   5458 C           -3.7487     3.9035    -2.3205 C       0      r0     0.0001
   5459 C           -3.2165     3.7152    -4.7538 C       5      r5     0.0011
   5460 C           -2.6954     3.7465    -3.3929 C       5      r5     0.0009
   5461 C           -2.1013     3.2701    -5.5798 C       5      r5     0.0001
   5462 C           -1.2009     3.5692    -3.5087 C       5      r5    -0.0003
   5463 C           -0.8348     3.1292    -4.8399 C       5      r5    -0.0015
   5464 C           -0.0381     3.9107    -2.6514 C       6      r6    -0.0004
   5465 C            0.5427     2.9751    -5.3861 C       6      r6    -0.0024
   5466 C            0.9750     2.7899    -6.7949 C       6      r6     0.0025
   5467 C            1.3266     3.8892    -3.1620 C       7      r7    -0.0017
   5468 C            1.5932     3.5178    -4.5521 C       7      r7    -0.0014
   5469 C            2.4887     4.4581    -2.4343 C       7      r7    -0.0008
   5470 C            2.9921     4.3875    -6.3527 C       5      r5     0.0043
   5471 C            2.9657     3.6881    -5.0767 C       7      r7     0.0005
   5472 C            3.3015     5.7904    -6.7767 C       5      r5    -0.0590
   5473 C            3.7916     3.8910    -2.3670 C       7      r7    -0.0010
   5474 C            4.0056     6.7998    -6.0452 C       7      r7     0.0357
   5475 C            4.1688     3.0329    -4.5559 C       7      r7    -0.0021
   5476 C            4.3567     2.7658    -3.1510 C       7      r7    -0.0024
   5477 C            4.2988     6.6815    -4.5606 C       7      r7    -0.0042
   5478 C            5.3046     6.0701    -2.3944 C       7      r7    -0.0007
   5479 C            5.4146     2.7732    -5.3353 C       7      r7    -0.0014
   5480 C            5.4228     6.1087    -3.8560 C       0      r0     0.0015
   5481 C            6.0278     3.7803    -6.1359 C       6      r6    -0.0006
   5482 C            6.7215     5.8293    -4.5417 C       0      r0    -0.0007
   5483 C            6.9937     4.7407    -5.4242 C       0      r0    -0.0021
   5484 C            8.1906     3.8660    -5.2565 C       7      r7     0.0030
   5485 C            8.4780     3.1371    -4.0130 C       7      r7     0.0046
   5486 C            8.7261     3.6792    -2.6897 C       5      r5     0.0006
   5487 C            8.7535     3.3824    -6.4985 C       7      r7    -0.0037
   5488 C            8.9577     4.9194    -2.4898 C       0      r0     0.0021
   5489 C           12.3382     4.4260    -2.7664 C       7      r7     0.0049
   5490 C           12.3340     3.3283    -3.6581 C       7      r7    -0.0368
   5491 C           13.1771     5.6238    -2.8091 C       7      r7    -0.0020
   5492 C           13.0312     3.0195    -4.9128 C       7      r7     0.2460
   5493 C           14.0057     5.9780    -3.9803 C       7      r7    -0.0043
   5494 C           14.3639     3.5482    -5.0661 C       7      r7    -0.0556
   5495 C           14.8025     4.9261    -4.6581 C       7      r7     0.0064
   5496 C           15.5566     3.0267    -5.7521 C       7      r7     0.0160
   5497 C           16.2127     5.1185    -4.9478 C       7      r7     0.0014
   5498 C           16.6844     3.9471    -5.6415 C       7      r7    -0.0037
   5499 C           17.0593     6.3509    -4.6551 C       7      r7    -0.0013
   5500 C           17.2466     5.1614    -2.3591 C       5      r5    -0.0008
   5501 C           17.6628     6.2802    -3.2352 C       6      r6    -0.0012
   5502 C           18.0845     3.4131    -5.6990 C       7      r7    -0.0000
   5503 C           18.3567     6.5917    -5.8218 C       7      r7    -0.0002
   5504 C           18.4330     2.4317    -4.6434 C       6      r6    -0.0013
   5505 C           19.2057     4.1716    -6.2271 C       7      r7    -0.0010
   5506 C           19.3733     3.6637    -2.6651 C       7      r7    -0.0008
   5507 C           19.4982     5.5845    -5.9350 C       7      r7    -0.0011
   5508 C           19.5946     2.8980    -3.8673 C       5      r5    -0.0010
   5509 C           20.7087     5.9298    -6.6191 C       7      r7     0.0004
   5510 C           21.0034     2.9238    -4.0680 C       5      r5    -0.0008
   5511 C           21.4575     4.0158    -3.3024 C       5      r5    -0.0007
   5512 C           21.8606     2.5430    -5.1475 C       5      r5    -0.0007
   5513 C           22.5768     4.8165    -3.5039 C       6      r6     0.0004
   5514 C           22.5261     6.2463    -3.1094 C       0      r0    -0.0049
   5515 C           23.0593     3.2016    -5.3303 C       5      r5    -0.0011
   5516 C           23.1666     6.8201    -5.4896 C       7      r7    -0.0014
   5517 C           23.4883     4.1014    -4.3155 C       6      r6     0.0003
   5518 C           23.7407     2.8679    -6.6556 C       7      r7     0.0001
   5519 C           24.4269     6.0601    -5.7803 C       7      r7     0.0027
   5520 C           24.8281     4.0378    -3.9370 C       6      r6     0.0004
   5521 C           25.1637     2.7974    -6.1484 C       7      r7    -0.0003
   5522 C          -25.0554     8.9225    -3.7910 C       5      r5     0.0259
   5523 C          -24.7406     7.5194    -4.0342 C       5      r5     0.0058
   5524 C          -24.1632     9.5346    -2.8020 C       5      r5     0.0167
   5525 C          -24.0899    10.8748    -2.2359 C       0      r0     0.0256
   5526 C          -23.5366     7.3381    -3.1876 C       7      r7    -0.0031
   5527 C          -22.3140     7.2731    -3.9248 C       7      r7    -0.0032
   5528 C          -20.9360     7.6053    -3.6018 C       7      r7    -0.0044
   5529 C          -20.3566     8.1203    -2.3406 C       7      r7     0.0011
   5530 C          -20.0600     6.8439    -4.5206 C       5      r5    -0.0020
   5531 C          -18.6669    11.3512    -6.7790 C       7      r7     0.0001
   5532 C          -18.5085    10.9211    -2.5422 C       5      r5    -0.0080
   5533 C          -17.5108     8.7470    -6.8137 C       7      r7     0.0003
   5534 C          -17.1702    10.3902    -2.4547 C       7      r7     0.0039
   5535 C          -16.9116     7.5093    -6.4728 C       7      r7    -0.0001
   5536 C          -16.3632    11.4142    -3.0815 C       7      r7    -0.0000
   5537 C          -15.5075     7.6795    -6.6333 C       7      r7     0.0019
   5538 C          -14.8202     8.9761    -2.7280 C       0      r0     0.0000
   5539 C          -14.1870    10.1518    -3.2250 C       0      r0     0.0004
   5540 C          -13.2178     7.2486    -5.7436 C       7      r7     0.0009
   5541 C          -13.1068     6.9582    -4.3456 C       5      r5     0.0018
   5542 C          -12.7442    10.3583    -2.9133 C       7      r7    -0.0022
   5543 C          -12.5924     8.4575    -6.1906 C       7      r7     0.0001
   5544 C          -12.2553     8.0381    -3.8027 C       7      r7     0.0024
   5545 C          -11.9691     8.8989    -5.0028 C       7      r7    -0.0006
   5546 C          -11.8206     8.3253    -2.4231 C       7      r7     0.0007
   5547 C          -11.6659    10.3368    -5.0404 C       7      r7    -0.0031
   5548 C          -11.7232    11.1331    -6.2302 C       7      r7     0.0013
   5549 C          -11.6017    11.0462    -3.6848 C       7      r7    -0.0014
   5550 C          -10.1131    10.7728    -3.0194 C       7      r7    -0.0017
   5551 C           -9.1061     7.0964    -5.5712 C       5      r5    -0.0008
   5552 C           -9.1941    11.0384    -3.9330 C       0      r0    -0.0000
   5553 C           -8.7665     7.0386    -3.1198 C       7      r7     0.0011
   5554 C           -8.8128     9.5392    -6.6477 C       7      r7    -0.0039
   5555 C           -8.4015     8.4182    -5.7266 C       6      r6    -0.0036
   5556 C           -8.3593    10.9512    -6.4347 C       7      r7     0.0027
   5557 C           -7.3872     7.4246    -3.4652 C       6      r6     0.0007
   5558 C           -7.3810     8.2754    -4.6644 C       6      r6     0.0010
   5559 C           -6.2146     6.9407    -2.6433 C       6      r6     0.0015
   5560 C           -6.1555     9.0734    -4.9021 C       6      r6    -0.0005
   5561 C           -6.1525     9.9532    -2.3924 C       5      r5    -0.0015
   5562 C           -5.6357     9.7961    -3.7503 C       5      r5    -0.0014
   5563 C           -5.6258     9.3478    -6.1681 C       6      r6    -0.0012
   5564 C           -4.7045    10.8622    -4.0076 C       5      r5     0.0003
   5565 C           -4.8105    10.5196    -6.4460 C       6      r6    -0.0044
   5566 C           -3.4453     6.8798    -4.6688 C       0      r0     0.0013
   5567 C           -2.3022     7.6278    -4.6174 C       6      r6     0.0003
   5568 C           -2.2858     8.0086    -3.1608 C       6      r6    -0.0008
   5569 C           -2.2337     6.9597    -2.3014 C       0      r0    -0.0002
   5570 C           -2.2304     9.4087    -2.6451 C       6      r6    -0.0021
   5571 C           -1.6357     8.6060    -5.5302 C       6      r6     0.0006
   5572 C           -1.1857     9.7622    -4.7680 C       6      r6    -0.0013
   5573 C           -1.1350     9.9713    -3.3398 C       6      r6    -0.0007
   5574 C           -0.9161    11.0429    -5.4897 C       6      r6    -0.0006
   5575 C            0.1066    10.4214    -2.3678 C       6      r6    -0.0031
   5576 C            1.3698    10.4425    -3.1903 C       6      r6    -0.0016
   5577 C            1.6734    11.2138    -4.3737 C       5      r5    -0.0021
   5578 C            2.1998     9.2571    -3.0643 C       5      r5    -0.0024
   5579 C            2.2575    11.4229    -6.5793 C       5      r5     0.0006
   5580 C            2.5671     6.9883    -2.4943 C       5      r5    -0.0005
   5581 C            2.6480    10.6834    -5.3325 C       5      r5    -0.0011
   5582 C            3.0730     8.6989    -4.0809 C       7      r7    -0.0003
   5583 C            3.2934     7.3260    -3.7346 C       7      r7     0.0028
   5584 C            3.5678     9.5829    -5.1537 C       7      r7    -0.0001
   5585 C            4.2565     7.9684    -6.8523 C       7      r7    -0.0498
   5586 C            4.6423     9.2446    -6.1233 C       7      r7     0.0078
   5587 C            5.8796     9.9342    -6.4553 C       0      r0    -0.0033
   5588 C            6.1084    11.3474    -6.5716 C       7      r7    -0.0003
   5589 C            7.1639     9.3892    -2.3430 C       7      r7     0.0009
   5590 C            7.8101     6.8131    -4.1925 C       0      r0    -0.0008
   5591 C            7.8248    10.9478    -4.2993 C       7      r7     0.0002
   5592 C            7.7954     7.9545    -6.4285 C       5      r5    -0.0013
   5593 C            8.1034    10.2868    -3.0346 C       7      r7     0.0010
   5594 C            8.1743     7.1337    -2.7930 C       6      r6    -0.0003
   5595 C            8.4847     7.6811    -5.1510 C       5      r5    -0.0015
   5596 C            9.2614    10.5764    -6.3880 C       0      r0     0.0003
   5597 C            9.2009    10.6518    -5.0047 C       5      r5     0.0009
   5598 C            9.5557    10.1171    -2.8089 C       5      r5     0.0007
   5599 C            9.9455     7.4185    -5.3653 C       5      r5    -0.0008
   5600 C           10.2738    10.2242    -4.0381 C       5      r5     0.0012
   5601 C           10.8315     8.2149    -4.8013 C       0      r0    -0.0007
   5602 C           11.4681     9.2785    -4.2002 C       0      r0     0.0003
   5603 C           12.8793     9.3169    -3.6591 C       6      r6    -0.0001
   5604 C           13.4858    10.5361    -2.9629 C       7      r7     0.0006
   5605 C           13.9814    11.0013    -5.3240 C       6      r6     0.0005
   5606 C           13.8919     8.5918    -4.4118 C       6      r6    -0.0009
   5607 C           14.5551     9.6906    -5.2172 C       6      r6     0.0006
   5608 C           14.6407     7.3339    -4.1503 C       6      r6     0.0011
   5609 C           14.9230    10.4293    -2.3243 C       7      r7     0.0020
   5610 C           15.5377     9.4101    -6.2700 C       6      r6     0.0004
   5611 C           15.9705     7.4160    -4.7347 C       6      r6    -0.0003
   5612 C           16.0840     8.1004    -6.0588 C       6      r6     0.0000
   5613 C           18.7831    10.3663    -6.7961 C       0      r0    -0.0011
   5614 C           18.9148     7.0284    -3.1330 C       6      r6     0.0006
   5615 C           18.8116     9.1838    -6.0733 C       0      r0     0.0001
   5616 C           18.8879     8.0310    -5.3885 C       6      r6    -0.0005
   5617 C           19.6180     7.9849    -4.0722 C       6      r6     0.0003
   5618 C           19.5924    11.0926    -3.8621 C       0      r0    -0.0009
   5619 C           20.7345     8.8901    -3.8107 C       5      r5    -0.0028
   5620 C           20.8078    10.4580    -3.9178 C       5      r5     0.0006
   5621 C           22.2311    10.9884    -3.9345 C       5      r5     0.0009
   5622 C           22.1195     8.6269    -4.0181 C       5      r5     0.0075
   5623 C           22.6570     7.5170    -6.6587 C       7      r7    -0.0011
   5624 C           22.6353     7.2196    -4.1725 C       0      r0     0.0103
   5625 C           22.9958     9.8034    -4.2033 C       5      r5     0.0160
   5626 C           24.4784     9.8218    -4.4867 C       6      r6     0.0018
   5627 C           25.0184    11.1591    -4.7138 C       7      r7    -0.0002
   5628 C          -24.2904    14.1257    -4.1300 C       7      r7    -0.0008
   5629 C          -24.0611    11.7702    -6.7083 C       6      r6    -0.0010
   5630 C          -24.1142    15.5689    -3.8467 C       7      r7    -0.0016
   5631 C          -24.1046    11.4480    -5.2910 C       7      r7    -0.0031
   5632 C          -23.2018    12.0658    -4.2842 C       7      r7    -0.0013
   5633 C          -23.3631    15.2531    -6.5525 C       7      r7     0.0007
   5634 C          -23.1115    13.4628    -4.6620 C       7      r7    -0.0030
   5635 C          -23.1282    13.8387    -6.1375 C       7      r7    -0.0023
   5636 C          -22.9781    11.7195    -2.8417 C       0      r0    -0.0057
   5637 C          -20.0856    15.1459    -4.0981 C       5      r5    -0.0009
   5638 C          -19.9625    13.9441    -3.3403 C       5      r5    -0.0009
   5639 C          -20.0851    14.7795    -5.5362 C       5      r5     0.0001
   5640 C          -19.5196    12.8422    -4.1557 C       5      r5    -0.0021
   5641 C          -19.6629    13.3858    -5.4668 C       5      r5    -0.0010
   5642 C          -19.3874    12.5827    -6.6018 C       6      r6     0.0000
   5643 C          -18.5836    11.7877    -3.7374 C       5      r5    -0.0003
   5644 C          -17.2529    12.1286    -4.0595 C       5      r5     0.0008
   5645 C          -17.1570    14.9206    -2.5283 C       7      r7     0.0002
   5646 C          -16.8978    13.3865    -4.7306 C       6      r6     0.0002
   5647 C          -16.5963    13.6130    -6.1594 C       5      r5     0.0010
   5648 C          -16.6800    14.5890    -3.9038 C       7      r7     0.0016
   5649 C          -15.8005    14.6518    -6.6934 C       7      r7    -0.0017
   5650 C          -15.5826    15.3330    -4.4238 C       7      r7    -0.0002
   5651 C          -15.1320    15.3934    -5.7727 C       7      r7    -0.0007
   5652 C          -14.8867    11.4506    -2.9375 C       7      r7    -0.0020
   5653 C          -11.6884    12.5082    -4.2543 C       5      r5     0.0008
   5654 C          -11.5772    13.6864    -3.3817 C       6      r6    -0.0028
   5655 C          -11.5750    12.5831    -5.6629 C       7      r7    -0.0020
   5656 C          -11.0267    13.8050    -6.2419 C       7      r7     0.0117
   5657 C          -10.9667    14.9210    -3.8713 C       7      r7     0.0039
   5658 C          -10.9293    15.0145    -5.3539 C       7      r7     0.0229
   5659 C          -10.4135    15.8351    -2.8218 C       7      r7     0.0168
   5660 C           -8.4293    13.7868    -2.7572 C       0      r0     0.0113
   5661 C           -8.3412    11.4231    -5.0472 C       5      r5    -0.0077
   5662 C           -7.9768    13.4076    -3.9900 C       0      r0     0.0454
   5663 C           -7.6007    12.7329    -5.2304 C       5      r5     0.0115
   5664 C           -7.1598    13.0028    -6.6302 C       5      r5     0.0390
   5665 C           -4.6956    13.8636    -6.1949 C       6      r6     0.0204
   5666 C           -4.5888    11.5923    -2.7695 C       5      r5    -0.0003
   5667 C           -4.4710    12.8932    -5.0872 C       6      r6    -0.0017
   5668 C           -4.6022    11.4516    -5.3563 C       6      r6    -0.0053
   5669 C           -4.0319    13.5111    -3.8475 C       6      r6     0.0113
   5670 C           -3.8198    12.8043    -2.5606 C       6      r6     0.0054
   5671 C           -3.4020    14.1620    -6.6990 C       6      r6    -0.0063
   5672 C           -3.5115    15.7628    -2.8808 C       6      r6    -0.0022
   5673 C           -3.1946    14.6955    -3.7874 C       6      r6     0.0078
   5674 C           -2.3471    13.2053    -6.3990 C       6      r6    -0.0039
   5675 C           -1.8997    14.5871    -4.4779 C       6      r6    -0.0013
   5676 C           -1.4840    13.3919    -5.2283 C       6      r6    -0.0009
   5677 C           -1.0751    15.7285    -4.3752 C       6      r6    -0.0001
   5678 C           -0.6015    12.3123    -4.8157 C       6      r6    -0.0011
   5679 C            0.2516    15.6922    -4.9383 C       6      r6    -0.0009
   5680 C            0.8803    12.3978    -4.8347 C       5      r5    -0.0004
   5681 C            1.0953    15.4036    -2.4909 C       6      r6     0.0040
   5682 C            1.2935    15.4747    -3.9044 C       6      r6    -0.0018
   5683 C            1.5057    12.6865    -6.0763 C       5      r5    -0.0016
   5684 C            2.3072    13.8551    -6.4230 C       6      r6    -0.0012
   5685 C            2.6792    15.1079    -4.2385 C       5      r5     0.0006
   5686 C            3.2271    14.4550    -5.4323 C       5      r5    -0.0012
   5687 C            3.8075    15.4325    -3.3669 C       5      r5    -0.0012
   5688 C            4.6954    14.6931    -5.5854 C       7      r7    -0.0010
   5689 C            5.1568    15.4268    -4.1169 C       7      r7    -0.0002
   5690 C            5.7239    13.4151    -2.5287 C       6      r6    -0.0001
   5691 C            5.8355    13.7059    -5.8148 C       7      r7    -0.0007
   5692 C            5.9363    12.2785    -5.4665 C       7      r7    -0.0019
   5693 C            5.9868    12.0812    -2.9809 C       7      r7    -0.0006
   5694 C            6.1667    14.5959    -3.3229 C       6      r6    -0.0006
   5695 C            6.7206    11.8656    -4.2711 C       7      r7     0.0004
   5696 C            7.1974    14.1394    -5.4104 C       7      r7     0.0011
   5697 C            7.4395    14.6000    -4.0056 C       6      r6     0.0015
   5698 C            8.2731    13.9398    -6.3460 C       7      r7     0.0009
   5699 C            8.7455    14.3261    -3.4207 C       6      r6     0.0005
   5700 C            9.6157    13.8339    -5.6791 C       6      r6     0.0005
   5701 C            9.7432    13.6712    -4.2667 C       6      r6     0.0001
   5702 C           10.8104    13.4655    -6.4092 C       5      r5     0.0003
   5703 C           10.9236    12.9467    -3.7148 C       7      r7    -0.0003
   5704 C           11.9070    12.6565    -5.8943 C       5      r5    -0.0000
   5705 C           11.9067    12.2912    -4.5235 C       7      r7    -0.0000
   5706 C           13.3179    11.7553    -4.1690 C       7      r7    -0.0001
   5707 C           13.4096    15.0750    -5.2813 C       6      r6     0.0005
   5708 C           13.6934    15.7767    -6.5567 C       6      r6     0.0018
   5709 C           14.0282    11.6743    -6.6036 C       7      r7     0.0001
   5710 C           14.2637    12.9534    -3.9907 C       5      r5    -0.0004
   5711 C           14.4322    13.9953    -4.9786 C       5      r5     0.0002
   5712 C           15.6023    12.4773    -3.8220 C       5      r5     0.0006
   5713 C           15.7937    14.0390    -5.5205 C       5      r5     0.0007
   5714 C           15.9228    11.3806    -2.7958 C       7      r7     0.0002
   5715 C           16.1186    15.0963    -6.4715 C       7      r7     0.0008
   5716 C           16.5399    12.9951    -4.8306 C       5      r5     0.0011
   5717 C           17.3770    11.3593    -2.6360 C       7      r7    -0.0002
   5718 C           17.8029    12.2841    -5.0166 C       6      r6     0.0001
   5719 C           18.3676    11.7756    -6.3259 C       0      r0    -0.0004
   5720 C           18.3150    11.7063    -3.7682 C       6      r6    -0.0011
   5721 C           18.5386    15.0830    -2.3737 C       7      r7     0.0018
   5722 C           21.5728    14.2078    -2.7113 C       7      r7     0.0005
   5723 C           22.5463    13.7461    -3.7563 C       5      r5     0.0011
   5724 C           22.8125    12.3385    -4.0579 C       5      r5     0.0007
   5725 C           23.6800    14.4739    -4.3196 C       5      r5    -0.0014
   5726 C           24.1986    12.3337    -4.5203 C       7      r7     0.0005
   5727 C           24.8285    13.6303    -4.3522 C       7      r7    -0.0006
   5728 C          -24.2241    18.4956    -6.9674 C       0      r0     0.0199
   5729 C          -23.8300    19.9178    -5.1584 C       6      r6    -0.0029
   5730 C          -23.2868    19.3033    -6.4298 C       6      r6     0.0042
   5731 C          -22.9146    16.2449    -4.3901 C       7      r7    -0.0013
   5732 C          -22.8865    20.2237    -4.2201 C       6      r6    -0.0004
   5733 C          -22.8755    16.4197    -5.8372 C       7      r7     0.0006
   5734 C          -21.8337    18.7979    -6.4525 C       6      r6     0.0070
   5735 C          -21.8599    16.6865    -3.4482 C       5      r5    -0.0010
   5736 C          -21.8810    17.3450    -6.4710 C       0      r0     0.0052
   5737 C          -21.5141    20.0916    -4.5513 C       6      r6    -0.0012
   5738 C          -20.8350    19.5821    -5.7287 C       6      r6    -0.0017
   5739 C          -20.5842    20.1777    -3.5299 C       5      r5    -0.0015
   5740 C          -20.4531    16.3954    -3.3731 C       5      r5    -0.0005
   5741 C          -19.3849    19.6869    -5.9959 C       7      r7     0.0005
   5742 C          -18.5288    20.2566    -4.8969 C       7      r7    -0.0006
   5743 C          -16.1474    20.3354    -5.8698 C       7      r7     0.0021
   5744 C          -14.7505    20.2304    -5.3451 C       0      r0     0.0015
   5745 C          -14.7312    16.7102    -2.6457 C       7      r7    -0.0007
   5746 C          -14.5770    15.9541    -3.7755 C       7      r7     0.0002
   5747 C          -13.9748    16.0978    -5.9420 C       7      r7    -0.0039
   5748 C          -13.5690    20.2378    -4.9174 C       0      r0    -0.0034
   5749 C          -13.5433    16.3695    -4.6248 C       5      r5    -0.0044
   5750 C          -13.5358    17.5194    -2.6600 C       7      r7    -0.0001
   5751 C          -12.7876    17.4158    -3.9428 C       7      r7    -0.0049
   5752 C          -12.3065    20.2792    -4.3725 C       5      r5    -0.0023
   5753 C          -11.3513    17.6348    -3.9230 C       7      r7    -0.0016
   5754 C          -11.0525    20.0177    -5.2398 C       7      r7    -0.0019
   5755 C          -11.0550    16.2921    -6.0371 C       7      r7     0.0292
   5756 C          -10.8518    17.5621    -5.3385 C       7      r7     0.0198
   5757 C          -10.8588    18.8367    -6.0740 C       7      r7    -0.0004
   5758 C          -10.6361    17.2574    -2.6790 C       7      r7     0.0089
   5759 O           -6.5352    16.3286    -4.9611 O       5      r5    -0.4597
   5760 C           -6.4737    17.1435    -6.1949 C       5      r5     0.2449
   5761 C           -5.6510    17.2306    -4.1612 C       5      r5     0.2361
   5762 C           -5.4494    17.0429    -2.7408 C       7      r7    -0.0305
   5763 C           -5.4870    18.1005    -6.2470 C       5      r5    -0.0898
   5764 C           -5.0724    18.1841    -4.8499 C       5      r5    -0.0353
   5765 C           -4.7290    19.2608    -2.8798 C       7      r7    -0.0144
   5766 C           -4.0888    19.0291    -4.1017 C       5      r5     0.0035
   5767 C           -2.8468    18.1621    -3.6898 C       5      r5    -0.0076
   5768 C           -2.6649    16.9039    -3.1149 C       5      r5    -0.0022
   5769 C           -1.6060    18.9398    -3.7597 C       5      r5    -0.0050
   5770 C           -1.4608    20.3809    -4.0647 C       6      r6    -0.0045
   5771 C           -1.0785    16.6280    -3.1376 C       7      r7    -0.0046
   5772 C           -0.5463    18.1332    -3.3765 C       7      r7    -0.0062
   5773 C            0.1989    16.0737    -6.3434 C       7      r7    -0.0005
   5774 C            0.7469    18.6812    -3.2890 C       7      r7    -0.0039
   5775 C            0.9650    20.0333    -3.9719 C       7      r7    -0.0025
   5776 C            1.8272    18.0824    -2.4680 C       7      r7    -0.0038
   5777 C            3.1115    19.2932    -4.1501 C       7      r7    -0.0003
   5778 C            3.0936    18.3858    -2.9412 C       7      r7    -0.0021
   5779 C            3.8940    17.0713    -6.2551 C       7      r7     0.0018
   5780 C            4.2216    19.1892    -5.0932 C       7      r7     0.0020
   5781 C            4.6259    17.7766    -5.2952 C       7      r7     0.0008
   5782 C            5.6053    17.0252    -4.2984 C       7      r7     0.0003
   5783 C            5.5176    17.7748    -2.9424 C       7      r7    -0.0005
   5784 C            6.8543    16.6671    -6.4417 C       7      r7     0.0011
   5785 C            6.8947    17.0684    -5.0393 C       7      r7     0.0019
   5786 C            6.7826    18.3140    -2.5666 C       5      r5     0.0002
   5787 C            7.0186    20.0705    -6.5676 C       0      r0    -0.0013
   5788 C            8.1013    17.5926    -4.4330 C       7      r7     0.0002
   5789 C            8.0246    18.2865    -3.2197 C       7      r7     0.0010
   5790 C            8.8151    19.2838    -2.7378 C       7      r7     0.0006
   5791 C            9.1439    17.0191    -6.4946 C       6      r6     0.0002
   5792 C            9.2930    17.7231    -5.2177 C       7      r7    -0.0010
   5793 C           10.0744    19.8261    -3.0019 C       7      r7    -0.0011
   5794 C           10.5670    18.1543    -4.7590 C       7      r7    -0.0017
   5795 C           10.9855    19.2683    -3.9679 C       7      r7    -0.0002
   5796 C           11.5044    16.6804    -6.4979 C       5      r5     0.0002
   5797 C           11.5513    17.7925    -5.6486 C       5      r5     0.0006
   5798 C           12.2110    19.8822    -4.0560 C       6      r6    -0.0016
   5799 C           12.6632    18.5337    -5.9883 C       5      r5     0.0007
   5800 C           13.1725    19.4763    -5.0444 C       6      r6     0.0007
   5801 C           13.0214    16.4425    -2.9693 C       7      r7    -0.0006
   5802 C           13.1767    15.7749    -4.0722 C       0      r0     0.0003
   5803 C           14.0273    17.6867    -2.6071 C       7      r7    -0.0017
   5804 C           14.5284    19.9123    -4.8805 C       6      r6     0.0038
   5805 C           15.5117    19.2062    -5.5420 C       5      r5    -0.0040
   5806 C           15.4172    17.2875    -2.8343 C       7      r7    -0.0033
   5807 C           16.1008    17.8579    -5.4021 C       5      r5    -0.0019
   5808 C           16.0530    17.1633    -4.1371 C       5      r5    -0.0021
   5809 C           16.5861    19.9631    -5.9504 C       7      r7     0.0124
   5810 C           17.1298    17.8201    -6.4465 C       5      r5    -0.0012
   5811 C           17.2406    16.2261    -4.1079 C       7      r7    -0.0006
   5812 C           17.3065    15.7091    -2.8132 C       7      r7     0.0008
   5813 C           18.0044    16.6065    -6.4561 C       6      r6    -0.0033
   5814 C           18.4042    16.4239    -5.0245 C       7      r7     0.0005
   5815 C           19.3533    17.2982    -4.3663 C       7      r7    -0.0022
   5816 C           19.3976    17.3318    -2.8837 C       7      r7    -0.0009
   5817 C           19.6996    15.9561    -2.4486 C       7      r7     0.0013
   5818 C           20.3783    18.3707    -2.5437 C       7      r7    -0.0011
   5819 C           20.6944    17.7930    -4.8326 C       5      r5    -0.0045
   5820 C           21.0786    20.3194    -5.7708 C       6      r6     0.0049
   5821 C           21.3777    18.2530    -3.5723 C       7      r7    -0.0015
   5822 C           21.6648    17.0251    -5.6231 C       5      r5    -0.0036
   5823 C           22.7804    17.8633    -3.5068 C       7      r7    -0.0013
   5824 C           22.8504    16.9227    -4.6337 C       5      r5    -0.0000
   5825 C           23.3700    19.4310    -6.6194 C       6      r6    -0.0004
   5826 C           23.7378    17.9366    -2.3625 C       7      r7     0.0006
   5827 C           23.9279    20.0218    -5.3971 C       5      r5    -0.0009
   5828 C           23.9142    15.9384    -4.4463 C       6      r6    -0.0023
   5829 C           24.9378    17.0787    -2.4532 C       6      r6     0.0006
   5830 C           25.1148    16.3559    -3.7091 C       6      r6    -0.0004
   5831 C          -25.2338    20.1950    -4.8282 C       5      r5     0.0002
   5832 C          -25.1190    24.5425    -3.2546 C       7      r7     0.0003
   5833 C          -24.6001    21.0200    -2.5186 C       7      r7    -0.0004
   5834 C          -24.2598    23.0055    -5.9913 C       7      r7    -0.0028
   5835 C          -23.9174    23.9073    -3.7028 C       7      r7    -0.0016
   5836 C          -23.4719    23.2619    -4.8697 C       7      r7    -0.0014
   5837 C          -23.2771    20.6660    -2.8588 C       7      r7    -0.0001
   5838 C          -22.6940    24.0190    -3.0274 C       5      r5     0.0023
   5839 C          -22.0563    23.1062    -4.9182 C       7      r7    -0.0010
   5840 C          -21.5313    23.5554    -3.6663 C       7      r7    -0.0009
   5841 C          -21.4261    22.6356    -6.0918 C       7      r7    -0.0009
   5842 C          -20.2232    23.8051    -3.1178 C       7      r7     0.0005
   5843 C          -20.1017    23.1895    -6.3878 C       7      r7    -0.0011
   5844 C          -19.3833    24.2319    -5.6595 C       7      r7    -0.0005
   5845 C          -19.1647    20.4628    -3.6560 C       7      r7    -0.0006
   5846 C          -19.2643    24.3324    -4.1373 C       7      r7     0.0005
   5847 C          -18.8774    20.9670    -2.3110 C       7      r7     0.0008
   5848 C          -17.1877    20.8722    -5.0180 C       7      r7     0.0016
   5849 C          -16.8725    22.2603    -4.5292 C       7      r7     0.0005
   5850 C          -16.7851    22.4321    -3.0301 C       7      r7     0.0014
   5851 C          -16.2761    23.1889    -5.4005 C       7      r7     0.0006
   5852 C          -15.5810    23.1004    -2.4950 C       6      r6    -0.0002
   5853 C          -15.4340    24.3854    -4.7530 C       7      r7    -0.0005
   5854 C          -14.7945    23.7549    -3.5260 C       5      r5     0.0004
   5855 C          -14.1337    24.5737    -5.6178 C       7      r7     0.0018
   5856 C          -13.4272    23.4638    -3.7707 C       5      r5    -0.0004
   5857 C          -12.9907    23.9731    -5.0994 C       5      r5     0.0012
   5858 C          -12.9618    22.3157    -2.9604 C       6      r6     0.0001
   5859 C          -11.9107    21.4438    -3.5222 C       5      r5     0.0007
   5860 C          -11.6763    24.2568    -5.7156 C       6      r6     0.0000
   5861 C          -10.9836    24.1070    -2.4400 C       7      r7     0.0009
   5862 C          -10.6221    21.9405    -3.9379 C       7      r7    -0.0019
   5863 C          -10.4580    24.1622    -4.9064 C       7      r7    -0.0012
   5864 C          -10.2194    23.3706    -3.6648 C       7      r7    -0.0009
   5865 C          -10.0970    21.0818    -4.9992 C       7      r7     0.0011
   5866 C           -8.9830    21.4114    -5.9297 C       7      r7     0.0036
   5867 C           -8.4975    23.6525    -3.3425 C       7      r7    -0.0021
   5868 C           -7.7418    22.0345    -5.4893 C       7      r7     0.0053
   5869 C           -7.8383    21.3638    -2.7817 C       5      r5     0.0013
   5870 C           -7.6011    22.3377    -3.9694 C       7      r7    -0.0030
   5871 C           -6.8154    22.8778    -6.2240 C       5      r5     0.0010
   5872 C           -6.0958    22.4423    -4.1081 C       7      r7    -0.0025
   5873 C           -5.7293    23.3012    -5.2524 C       7      r7    -0.0018
   5874 C           -5.5742    20.3550    -3.0363 C       7      r7     0.0007
   5875 C           -5.2475    21.3224    -4.0019 C       7      r7    -0.0004
   5876 C           -4.3356    23.7056    -5.4644 C       7      r7     0.0010
   5877 C           -3.9507    20.6802    -4.6229 C       7      r7    -0.0004
   5878 C           -4.0484    24.4442    -3.1196 C       7      r7    -0.0006
   5879 C           -3.7744    24.7230    -4.5179 C       7      r7    -0.0009
   5880 C           -3.6120    21.1788    -5.9850 C       7      r7     0.0004
   5881 C           -3.4712    22.6347    -6.0959 C       7      r7     0.0016
   5882 C           -3.1704    23.2998    -2.7779 C       7      r7    -0.0059
   5883 C           -2.6323    21.2277    -4.0335 C       6      r6    -0.0079
   5884 C           -2.3705    22.6557    -3.8842 C       7      r7    -0.0006
   5885 C           -0.9992    23.0896    -4.1587 C       7      r7    -0.0016
   5886 C           -0.7473    24.8349    -2.4487 C       7      r7    -0.0066
   5887 C           -0.3976    24.2832    -3.6334 C       7      r7    -0.0006
   5888 C           -0.0780    20.9012    -4.3509 C       7      r7    -0.0027
   5889 C           -0.0445    22.2650    -4.9232 C       7      r7    -0.0019
   5890 C            0.6207    24.1008    -6.5050 C       7      r7    -0.0006
   5891 C            1.0232    22.9203    -5.6828 C       7      r7    -0.0008
   5892 C            2.3246    20.4948    -4.1458 C       7      r7    -0.0024
   5893 C            2.3534    22.9264    -5.1611 C       7      r7    -0.0018
   5894 C            3.0087    21.7705    -4.5222 C       7      r7    -0.0018
   5895 C            3.4004    23.8606    -5.7062 C       7      r7     0.0008
   5896 C            4.4725    21.6444    -4.5476 C       5      r5    -0.0029
   5897 C            4.6095    24.0957    -4.8971 C       7      r7    -0.0002
   5898 C            5.0247    20.4111    -5.0436 C       5      r5     0.0005
   5899 C            5.4483    22.8531    -4.7223 C       7      r7    -0.0006
   5900 C            6.3378    20.7403    -5.7472 C       5      r5     0.0003
   5901 C            6.3729    22.2958    -6.0842 C       7      r7     0.0006
   5902 C            6.6375    24.0926    -2.7556 C       6      r6    -0.0010
   5903 C            6.6324    23.0338    -3.7632 C       5      r5    -0.0010
   5904 C            7.7866    22.6799    -5.8178 C       5      r5     0.0015
   5905 C            7.9331    24.8389    -2.9499 C       7      r7    -0.0040
   5906 C            7.9421    22.7965    -4.4021 C       5      r5    -0.0040
   5907 C            9.0424    22.2826    -6.5148 C       6      r6    -0.0031
   5908 C            9.2204    24.1148    -2.7175 C       7      r7     0.0235
   5909 C            9.2324    23.1240    -3.7397 C       6      r6     0.0206
   5910 C           10.0018    21.7917    -5.5331 C       6      r6     0.0040
   5911 C           10.4419    22.7333    -4.4588 C       6      r6    -0.0394
   5912 C           10.8507    20.9571    -6.3942 C       6      r6    -0.0043
   5913 C           11.2616    24.9356    -6.6977 C       5      r5    -0.0031
   5914 C           11.7131    23.3739    -4.5280 C       7      r7     0.2274
   5915 O           12.1306    24.5424    -3.5485 O       7      r7    -0.5150
   5916 C           12.0647    21.7730    -6.5634 C       6      r6     0.0086
   5917 C           12.4124    22.9466    -5.7038 C       7      r7    -0.0341
   5918 C           12.6010    24.1029    -6.6933 C       7      r7     0.0201
   5919 C           12.6537    20.8384    -3.1829 C       5      r5    -0.0005
   5920 C           13.5702    24.8343    -3.5414 C       7      r7     0.2635
   5921 C           14.0145    21.3217    -3.0731 C       7      r7     0.0040
   5922 C           14.2908    24.7047    -4.7466 C       7      r7    -0.0795
   5923 C           15.0036    20.9270    -4.0375 C       7      r7     0.0116
   5924 C           15.6995    24.3774    -4.7903 C       6      r6     0.2018
   5925 O           16.1669    23.5964    -5.9502 O       6      r6    -0.4792
   5926 C           16.4496    21.1732    -3.9424 C       7      r7     0.0182
   5927 C           16.5186    24.8011    -3.8005 C       6      r6     0.1869
   5928 C           17.0796    21.6313    -2.7328 C       7      r7     0.0101
   5929 C           17.3101    20.7119    -5.0076 C       7      r7     0.0133
   5930 C           17.7147    23.5911    -6.0512 C       6      r6     0.1211
   5931 O           18.0373    24.7235    -3.7988 O       6      r6    -0.4929
   5932 C           18.4024    20.8869    -2.4601 C       6      r6    -0.0019
   5933 C           18.6022    24.1021    -5.0763 C       6      r6     0.2005
   5934 C           18.7896    20.7702    -4.9020 C       7      r7     0.0028
   5935 C           19.3352    21.0764    -3.6039 C       6      r6     0.0101
   5936 C           19.6682    20.4175    -5.9929 C       7      r7     0.0212
   5937 C           19.9859    23.9913    -5.2357 C       0      r0     0.0546
   5938 C           20.7628    21.1433    -3.3635 C       6      r6     0.0025
   5939 C           20.9706    24.7594    -2.3282 C       5      r5     0.0052
   5940 C           21.3144    23.9860    -4.9041 C       6      r6     0.0115
   5941 C           21.5518    20.6653    -4.5124 C       6      r6     0.0008
   5942 C           21.6930    24.4620    -3.5248 C       5      r5     0.0058
   5943 C           22.5062    23.5397    -5.7002 C       6      r6     0.0271
   5944 C           23.0528    24.6085    -3.1808 C       5      r5    -0.0024
   5945 C           22.9749    20.6507    -4.5063 C       5      r5    -0.0021
   5946 C           23.6465    21.1666    -3.3951 C       5      r5    -0.0013
   5947 C           23.8271    23.6137    -5.2120 C       7      r7    -0.0083
   5948 C           24.1592    24.3052    -3.9770 C       7      r7     0.0018
   5949 C           24.7928    23.0575    -6.1717 C       7      r7     0.0001
   5950 C           24.9433    20.8167    -3.5687 C       5      r5    -0.0018
   5951 C          -25.0081   -24.8669    -1.8902 C       6      r6    -0.0006
   5952 C          -24.9322   -24.1351     0.8124 C       7      r7     0.0005
   5953 C          -24.6931   -21.4403    -1.9762 C       6      r6    -0.0008
   5954 C          -24.3147   -21.0705    -0.6301 C       7      r7     0.0008
   5955 C          -23.7654   -24.7802    -1.1801 C       6      r6     0.0009
   5956 C          -23.6102   -24.3206     0.1659 C       7      r7     0.0009
   5957 C          -22.8976   -20.7958    -0.5436 C       7      r7    -0.0013
   5958 C          -22.3235   -24.1565     0.8342 C       7      r7     0.0012
   5959 C          -22.2913   -23.5926     2.1386 C       7      r7     0.0004
   5960 C          -21.8444   -21.2689    -1.4591 C       7      r7    -0.0012
   5961 C          -21.6211   -20.7177     1.7315 C       7      r7    -0.0003
   5962 C          -21.1744   -24.6159     0.0933 C       5      r5     0.0007
   5963 C          -20.4045   -20.9435    -1.2684 C       7      r7    -0.0007
   5964 C          -20.2415   -21.1680     1.3191 C       7      r7    -0.0027
   5965 C          -19.7195   -22.2606     1.8577 C       0      r0    -0.0055
   5966 C          -18.8939   -24.5187     1.5174 C       6      r6    -0.0004
   5967 C          -17.5167   -24.8861     1.6788 C       6      r6    -0.0019
   5968 C          -14.7531   -24.5838     1.3425 C       7      r7    -0.0020
   5969 C          -14.2068   -22.2187     1.2807 C       5      r5    -0.0059
   5970 C          -14.0539   -23.4172     0.5482 C       7      r7    -0.0001
   5971 C          -13.9581   -20.8495     0.8752 C       6      r6     0.0043
   5972 C          -13.2395   -23.1905    -0.6316 C       7      r7    -0.0066
   5973 C          -13.2548   -21.8043    -1.2496 C       6      r6     0.0200
   5974 C          -12.9949   -20.7315    -0.2454 C       6      r6     0.0246
   5975 C          -12.5737   -24.3387    -1.2785 C       7      r7     0.0030
   5976 C          -11.0684   -20.5179     1.6123 C       7      r7    -0.0654
   5977 C          -10.4978   -21.8035     1.4055 C       7      r7     0.0083
   5978 C          -10.2950   -24.2072     2.2234 C       6      r6     0.0003
   5979 C           -9.8730   -21.2214    -1.1363 C       7      r7    -0.0081
   5980 C           -9.9336   -22.0583     0.0959 C       7      r7    -0.0053
   5981 C           -9.5632   -24.4916     0.9998 C       5      r5    -0.0026
   5982 C           -9.3519   -23.3786     0.0153 C       7      r7     0.0003
   5983 C           -8.7519   -23.9219    -1.1856 C       7      r7    -0.0011
   5984 C           -7.8493   -23.3270    -2.1971 C       7      r7    -0.0002
   5985 C           -6.2752   -21.5583     2.0389 C       7      r7    -0.0013
   5986 C           -6.0248   -24.6983     1.3347 C       7      r7    -0.0010
   5987 C           -5.7069   -24.1919     0.0139 C       7      r7     0.0008
   5988 C           -5.2267   -22.8077    -0.0448 C       7      r7    -0.0008
   5989 C           -5.2232   -21.8475     1.0760 C       7      r7    -0.0043
   5990 C           -4.4662   -24.6357    -2.0298 C       7      r7     0.0019
   5991 C           -4.1334   -22.4749    -0.9277 C       7      r7     0.0009
   5992 C           -4.0097   -23.2735    -2.1590 C       7      r7    -0.0011
   5993 C           -3.9202   -21.1918     1.1451 C       5      r5    -0.0017
   5994 C           -3.5519   -21.2517    -0.2990 C       7      r7    -0.0026
   5995 C           -1.4597   -24.8383     1.1203 C       5      r5     0.2733
   5996 C           -1.2697   -24.9366    -0.1531 C       5      r5    -0.0510
   5997 C           -1.0404   -23.5093     1.4460 C       5      r5    -0.0563
   5998 C           -0.7385   -23.7203    -0.6958 C       7      r7     0.0013
   5999 C           -0.5130   -22.7984     0.3028 C       7      r7     0.0127
   6000 C           -0.2782   -23.8989    -2.0384 C       7      r7     0.0016
   6001 C            0.2931   -21.6164    -0.0212 C       7      r7    -0.0008
   6002 C            1.3456   -21.5002    -1.0330 C       7      r7    -0.0006
   6003 C            1.9138   -22.5571    -1.8986 C       7      r7    -0.0006
   6004 C            2.5353   -24.2779    -0.0394 C       6      r6     0.0044
   6005 C            3.3044   -23.9598     1.2703 C       6      r6     0.0132
   6006 C            3.3744   -22.8226    -1.8574 C       7      r7    -0.0005
   6007 C            3.5880   -24.0082    -1.0751 C       7      r7    -0.0062
   6008 C            4.3855   -20.8431     1.8389 C       6      r6    -0.0034
   6009 C            4.5975   -24.6052     1.2044 C       5      r5     0.0004
   6010 C            4.6654    24.9271    -1.2056 C       7      r7    -0.0036
   6011 C            7.8787   -21.8977    -1.6522 C       5      r5    -0.0002
   6012 C            7.9188   -23.2936    -1.6829 C       7      r7    -0.0009
   6013 C            8.3736   -21.5613    -0.3033 C       7      r7     0.0001
   6014 C            8.6614   -23.7209    -0.4692 C       7      r7    -0.0001
   6015 C            8.5753   -22.6636     0.5907 C       7      r7     0.0008
   6016 C            8.9619   -22.6307     2.0210 C       7      r7     0.0008
   6017 C            9.8471   -24.6371    -0.5572 C       7      r7     0.0004
   6018 C           10.8265   -24.5495     0.4612 C       6      r6     0.0054
   6019 C           11.4854   -20.4656    -1.9108 C       5      r5    -0.0019
   6020 C           11.3809   -21.8139    -1.4724 C       5      r5     0.0024
   6021 C           11.9388   -23.5697     0.4255 C       5      r5    -0.0025
   6022 C           11.7973   -22.1889    -0.1740 C       5      r5    -0.0021
   6023 C           12.2440   -21.1708     0.7065 C       7      r7    -0.0010
   6024 C           12.4363   -23.1724     1.9598 C       5      r5    -0.0010
   6025 C           12.5718   -21.7459     2.0387 C       7      r7    -0.0006
   6026 C           12.9459   -24.4098    -0.5567 C       6      r6     0.0098
   6027 C           14.1176   -23.9216    -1.2228 C       6      r6     0.0193
   6028 C           15.3442   -22.7933     1.1523 C       7      r7    -0.0022
   6029 C           15.3023   -23.6638    -0.1873 C       6      r6    -0.0042
   6030 C           15.5773   -20.9651    -0.5582 C       6      r6    -0.0032
   6031 C           15.6062   -21.4753     0.8786 C       7      r7    -0.0014
   6032 C           15.9599   -21.8161    -1.6136 C       6      r6     0.0033
   6033 C           15.9600   -20.4651     1.8989 C       7      r7    -0.0048
   6034 C           16.3273   -23.0718    -1.0941 C       6      r6    -0.0181
   6035 C           16.7798   -24.0788    -1.8493 C       6      r6     0.0533
   6036 C           17.6001    24.9385    -1.1855 C       6      r6     0.0179
   6037 C           18.8141   -21.5769     0.2506 C       7      r7    -0.0029
   6038 C           18.8363   -20.6042    -1.9928 C       7      r7    -0.0027
   6039 C           19.0497   -24.7992    -1.1256 C       6      r6     0.0127
   6040 C           18.9455   -22.9539     0.4423 C       7      r7    -0.0014
   6041 C           19.3259   -22.1455     1.4221 C       7      r7     0.0006
   6042 C           19.5934   -20.8406    -0.7652 C       7      r7    -0.0009
   6043 C           19.7035   -23.9055    -0.3185 C       6      r6    -0.0062
   6044 C           20.6393   -21.7234     1.7492 C       7      r7    -0.0010
   6045 C           21.0084   -21.0348    -0.6124 C       7      r7    -0.0001
   6046 C           21.1243   -24.1656    -0.1847 C       7      r7     0.0015
   6047 C           21.4540   -21.1825     0.7065 C       7      r7    -0.0003
   6048 C           21.7700   -24.6679    -1.3573 C       7      r7    -0.0037
   6049 C           21.8425   -24.2525     1.0960 C       7      r7    -0.0003
   6050 C           21.9886   -21.2056    -1.6323 C       7      r7    -0.0006
   6051 C           22.7842   -21.1611     1.0505 C       7      r7    -0.0009
   6052 C           23.1019   -24.8444    -1.8588 C       7      r7     0.0007
   6053 C           23.2222   -24.3441     1.0149 C       7      r7    -0.0005
   6054 C           23.4000   -21.2396    -1.3095 C       6      r6     0.0007
   6055 C           23.7899   -21.1115     0.0577 C       7      r7     0.0006
   6056 C           24.2779   -24.4921    -1.2462 C       7      r7    -0.0008
   6057 C           24.4052   -21.5468    -2.2351 C       6      r6     0.0003
   6058 C           24.3076   -24.2085     0.1316 C       7      r7    -0.0012
   6059 C           25.1432   -20.8691     0.3427 C       7      r7     0.0012
   6060 C           25.1841   -24.2869     2.1700 C       7      r7     0.0009
   6061 C           25.2270   -16.1800    -1.3227 C       5      r5    -0.0003
   6062 C          -25.1856   -20.1465     1.5352 C       7      r7     0.0008
   6063 C          -24.1458   -19.1886     1.9054 C       7      r7    -0.0003
   6064 C          -24.2468   -16.8373    -2.0885 C       5      r5    -0.0014
   6065 C          -23.0410   -18.7652     1.0551 C       7      r7    -0.0014
   6066 C          -23.0216   -16.0775    -0.3666 C       5      r5    -0.0023
   6067 C          -22.8490   -16.3310     1.1102 C       5      r5    -0.0000
   6068 C          -22.6919   -16.5246    -1.7941 C       5      r5     0.0011
   6069 C          -22.4428   -20.0988     0.7071 C       7      r7    -0.0005
   6070 C          -22.4166   -17.6185     1.6843 C       6      r6     0.0004
   6071 C          -21.9407   -17.8185    -2.0000 C       6      r6    -0.0041
   6072 C          -20.5423   -17.6264    -1.5803 C       7      r7     0.0064
   6073 C          -19.7756   -20.5526    -0.0248 C       7      r7    -0.0065
   6074 C          -19.8226   -19.9249    -2.1581 C       7      r7    -0.0072
   6075 C          -19.5661   -18.7051    -1.3203 C       7      r7     0.0157
   6076 C          -19.0872   -19.2524    -0.0237 C       5      r5    -0.0005
   6077 C          -18.4453   -18.6361     1.1653 C       6      r6     0.0454
   6078 O          -18.0947   -16.0780     0.1579 O       0      r0    -0.5117
   6079 C          -17.0646   -18.9068     1.5338 C       5      r5     0.0256
   6080 C          -16.8507   -16.1349    -0.7886 C       5      r5     0.2541
   6081 C          -15.7375   -18.8900     0.8783 C       5      r5     0.0241
   6082 C          -15.6231   -16.8937    -0.7209 C       7      r7    -0.0520
   6083 C          -15.0520   -17.6859     0.3714 C       7      r7     0.0474
   6084 C          -14.9352   -19.9646     1.4901 C       5      r5     0.0344
   6085 C          -14.6583   -16.5091    -1.7638 C       7      r7     0.0028
   6086 C          -14.0598   -16.0293     2.0530 C       5      r5    -0.0330
   6087 C          -13.9598   -16.8908     0.9591 C       7      r7     0.0619
   6088 C          -13.2181   -16.6813    -1.9876 C       7      r7     0.0449
   6089 C          -12.7221   -16.3943     0.2928 C       7      r7     0.0021
   6090 C          -12.2290   -16.7683    -1.0109 C       7      r7     0.0232
   6091 C          -11.8601   -19.8023    -0.2951 C       7      r7     0.0460
   6092 C          -10.9799   -19.4203     0.7306 C       7      r7     0.0492
   6093 C          -10.7384   -20.0525    -1.2162 C       7      r7     0.0181
   6094 C          -10.6544   -16.6303    -1.0233 C       6      r6     0.0066
   6095 C           -9.9153   -18.4377     0.8193 C       5      r5     0.0098
   6096 C           -9.7402   -17.2204     0.0640 C       5      r5     0.0003
   6097 C           -8.8572   -18.2490     1.8206 C       5      r5     0.0031
   6098 C           -8.4112   -16.6622     0.3335 C       5      r5     0.0242
   6099 C           -8.0857   -16.9921     1.7097 C       5      r5    -0.0220
   6100 C           -4.2548   -16.2436     0.3112 C       7      r7    -0.0092
   6101 C           -3.9449   -16.1201    -1.1641 C       7      r7    -0.0036
   6102 C           -3.3524   -16.9325     1.2533 C       7      r7    -0.0009
   6103 C           -2.9823   -20.1810    -1.1823 C       7      r7    -0.0024
   6104 C           -3.0914   -17.1002    -1.8084 C       7      r7    -0.0009
   6105 C           -2.2238   -19.1045    -0.5051 C       7      r7    -0.0032
   6106 C           -1.9912   -17.7816    -1.0730 C       7      r7     0.0024
   6107 C           -1.8553   -16.8098     1.0214 C       7      r7    -0.0006
   6108 C           -1.3768   -19.6277     0.6275 C       7      r7    -0.0018
   6109 C           -1.0929   -18.8726     1.8696 C       7      r7    -0.0048
   6110 C           -1.1499   -16.8775    -0.2423 C       7      r7     0.0005
   6111 C           -0.8736   -17.4281     1.9736 C       7      r7     0.0062
   6112 C           -0.1156   -20.2807     0.1928 C       5      r5     0.0004
   6113 C            0.3364   -16.9254    -0.3439 C       6      r6     0.0017
   6114 C            1.0411   -19.4843    -0.2702 C       5      r5    -0.0026
   6115 C            1.0595   -18.1191    -0.7763 C       5      r5    -0.0006
   6116 C            1.3758   -15.8416    -0.3527 C       6      r6    -0.0015
   6117 C            1.5563   -16.2110     2.1528 C       7      r7    -0.0020
   6118 C            2.0331   -20.2436    -1.0032 C       5      r5    -0.0024
   6119 C            2.0010   -18.1139    -1.8838 C       7      r7     0.0004
   6120 C            4.9025   -19.5025     1.6036 C       6      r6     0.0033
   6121 C            5.2390   -16.9448     1.1115 C       7      r7    -0.0019
   6122 C            5.0813   -19.1786     0.1721 C       6      r6    -0.0190
   6123 H            5.1244   -19.9930    -0.5940 H       0      r0     0.0234
   6124 C            5.4439   -17.8626    -0.0790 C       6      r6     0.0024
   6125 C            6.2927   -17.5045    -1.3036 C       7      r7    -0.0014
   6126 C            7.6056   -17.0012    -0.8264 C       7      r7     0.0026
   6127 C            8.6536   -19.3230    -1.3078 C       7      r7    -0.0003
   6128 C            8.7519   -17.9544    -0.7761 C       7      r7     0.0001
   6129 C            8.7429   -20.1830    -0.1893 C       7      r7    -0.0001
   6130 C            9.2061   -19.4938     1.0168 C       7      r7    -0.0006
   6131 C            9.4013   -18.1552     0.5021 C       5      r5    -0.0010
   6132 C            9.6509   -16.9863     1.4499 C       6      r6    -0.0014
   6133 C           11.6019   -16.9409    -1.9121 C       6      r6    -0.0023
   6134 C           11.8856   -18.0530    -0.9849 C       5      r5    -0.0029
   6135 C           11.8658   -19.4717    -0.9830 C       5      r5    -0.0017
   6136 C           12.1575   -16.1780     0.6930 C       6      r6     0.0004
   6137 C           12.4289   -17.5199     0.2115 C       5      r5     0.0007
   6138 C           12.2200   -19.8691     0.3003 C       7      r7    -0.0013
   6139 C           12.6587   -18.6785     1.0027 C       7      r7     0.0002
   6140 C           12.7891   -15.8867     2.0059 C       6      r6     0.0045
   6141 C           14.4490   -17.8430    -2.3170 C       7      r7     0.0071
   6142 C           14.5452   -16.5847    -1.6707 C       7      r7     0.0007
   6143 C           14.9536   -19.1383    -2.1108 C       7      r7    -0.0020
   6144 C           15.4203   -19.5692    -0.8340 C       7      r7    -0.0042
   6145 C           15.5089   -16.4991    -0.5760 C       7      r7     0.0139
   6146 C           16.0644   -18.6707     0.1281 C       7      r7    -0.0012
   6147 C           16.5031   -17.4027    -0.2519 C       7      r7     0.0288
   6148 C           16.5425   -19.2171     1.3166 C       7      r7     0.0177
   6149 O           17.0014   -15.9796     2.0731 O       5      r5    -0.4983
   6150 C           17.8575   -18.8970     1.6652 C       7      r7     0.0171
   6151 C           17.9084   -17.4003    -0.1351 C       6      r6     0.0247
   6152 C           18.4349   -17.2411    -1.4882 C       0      r0    -0.0137
   6153 C           18.6472   -18.0771     0.8445 C       5      r5     0.0137
   6154 C           19.7543   -16.6670    -1.8028 C       0      r0     0.0023
   6155 C           19.8789   -17.9930     1.5354 C       5      r5     0.0015
   6156 C           20.9504   -17.4705    -1.4309 C       6      r6    -0.0036
   6157 C           21.0769   -17.2055     1.2041 C       6      r6    -0.0005
   6158 C           21.5150   -17.0420    -0.1818 C       6      r6    -0.0018
   6159 C           22.0764   -16.8255     2.2144 C       7      r7    -0.0001
   6160 C           22.7835   -16.2713    -0.3522 C       6      r6     0.0003
   6161 C           23.3249   -17.6984    -2.2482 C       6      r6     0.0007
   6162 C           23.8251   -16.7000    -1.2546 C       6      r6     0.0007
   6163 C          -24.3543   -15.5149    -0.3342 C       5      r5    -0.0006
   6164 C          -24.1352   -14.5193     0.7683 C       5      r5     0.0008
   6165 C          -23.7091   -12.8980    -1.3173 C       5      r5    -0.0013
   6166 C          -23.5517   -15.3341     1.8847 C       5      r5    -0.0004
   6167 C          -23.5204   -13.3142     0.0614 C       5      r5    -0.0004
   6168 C          -22.9756   -11.6554    -1.5898 C       5      r5    -0.0019
   6169 C          -22.5435   -12.3783     0.6020 C       5      r5     0.0002
   6170 C          -21.5895   -12.5061     1.7720 C       6      r6    -0.0009
   6171 C          -20.8180   -13.8372     1.6312 C       5      r5     0.0058
   6172 C          -19.9799   -15.9683     1.9961 C       7      r7    -0.0559
   6173 C          -19.8862   -14.2475     0.5765 C       5      r5    -0.0558
   6174 C          -19.3182   -15.5174     0.8380 C       5      r5     0.2701
   6175 C          -18.9570   -13.3226    -0.1689 C       5      r5     0.0245
   6176 C          -18.6308   -13.5631    -1.5584 C       5      r5     0.0077
   6177 C          -17.7807   -13.0424     0.6586 C       5      r5     0.0141
   6178 C          -17.4052   -12.3166     1.9057 C       7      r7    -0.0009
   6179 C          -17.0146   -13.6581    -1.6619 C       5      r5     0.0168
   6180 C          -16.6268   -13.2278    -0.2302 C       5      r5     0.0049
   6181 C          -16.4883   -15.1490    -1.6462 C       5      r5    -0.0574
   6182 C          -15.4042   -13.2446     0.4528 C       0      r0     0.0003
   6183 C          -14.5182   -13.3096     1.1922 C       0      r0    -0.0040
   6184 C          -12.0522   -15.3714     0.9433 C       7      r7     0.0160
   6185 C          -11.2981   -12.3043     1.5133 C       7      r7    -0.0048
   6186 C          -11.1057   -14.4997     0.2129 C       7      r7     0.0112
   6187 C          -10.9282   -12.9882     0.3199 C       7      r7     0.0078
   6188 C          -10.2902   -15.1656    -0.7866 C       6      r6     0.0130
   6189 C          -10.1041   -11.6263     1.9997 C       7      r7     0.0229
   6190 C           -9.9363   -11.6490    -1.7836 C       5      r5    -0.0008
   6191 C           -9.8491   -12.5131    -0.6153 C       6      r6     0.0007
   6192 C           -8.8899   -14.7445    -0.9596 C       7      r7     0.0159
   6193 C           -8.6262   -13.3225    -0.7015 C       7      r7     0.0274
   6194 C           -7.7790   -15.5383    -0.4051 C       7      r7     0.0216
   6195 C           -7.3613   -11.3652     0.2876 C       0      r0     0.0080
   6196 C           -7.3119   -12.5389    -0.6044 C       7      r7     0.0068
   6197 C           -6.5815   -11.4780     1.5433 C       0      r0     0.0027
   6198 C           -6.3794   -15.1946    -0.3090 C       7      r7     0.0082
   6199 C           -6.0235   -12.9511    -1.1654 C       7      r7     0.0015
   6200 C           -5.9122   -12.5048     1.9782 C       0      r0     0.0217
   6201 C           -5.6321   -14.3393    -1.2756 C       7      r7    -0.0038
   6202 C           -5.4545   -15.5789     0.8281 C       6      r6     0.0012
   6203 C           -5.1472   -14.9287     2.0896 C       6      r6     0.0190
   6204 C           -4.8938   -11.9920    -1.4859 C       6      r6    -0.0016
   6205 C           -4.2250   -14.7316    -1.5603 C       6      r6    -0.0001
   6206 C           -3.5246   -12.4191    -1.9129 C       5      r5    -0.0014
   6207 C           -3.3075   -13.8047    -2.1868 C       5      r5    -0.0009
   6208 C           -2.3598   -11.6618    -2.2729 C       7      r7    -0.0006
   6209 C           -0.1042   -11.9415    -0.4436 C       7      r7    -0.0003
   6210 C            0.0709   -12.5483    -1.7419 C       7      r7     0.0004
   6211 C            1.0894   -12.0816     0.3444 C       5      r5    -0.0007
   6212 C            1.3917   -13.0310    -1.7728 C       5      r5     0.0007
   6213 C            1.7336   -15.6001    -1.7633 C       7      r7    -0.0013
   6214 C            2.0594   -12.6868    -0.5263 C       5      r5    -0.0013
   6215 C            2.1902   -15.6826     0.9022 C       7      r7    -0.0013
   6216 C            3.4230   -13.8524     1.9143 C       7      r7    -0.0020
   6217 C            3.5243   -15.0579     1.0894 C       7      r7    -0.0009
   6218 C            3.5300   -12.7350    -0.2795 C       6      r6    -0.0013
   6219 C            3.7196   -14.0653    -2.3872 C       7      r7     0.0005
   6220 C            3.8206   -12.6101     1.1981 C       6      r6    -0.0022
   6221 C            4.1339   -11.3619     1.9062 C       7      r7    -0.0020
   6222 C            4.3420   -13.2363    -1.4059 C       7      r7    -0.0002
   6223 C            4.9047   -15.5475     0.7729 C       7      r7    -0.0006
   6224 C            5.8135   -12.8652    -1.4336 C       7      r7     0.0006
   6225 C            6.0361   -14.6826     0.9997 C       7      r7     0.0013
   6226 C            6.7763   -12.5744    -0.3033 C       0      r0     0.0003
   6227 C            7.2701   -14.8064     0.1845 C       0      r0     0.0005
   6228 C            7.3437   -11.5756     1.7784 C       6      r6     0.0020
   6229 C            7.7748   -15.5092    -0.9776 C       0      r0     0.0015
   6230 C            7.8817   -13.4457     0.0675 C       0      r0     0.0011
   6231 C            8.0760   -14.6859    -2.1372 C       7      r7     0.0012
   6232 C            8.9858   -11.3442    -2.1458 C       5      r5    -0.0001
   6233 C            9.1383   -13.2977     0.8323 C       0      r0    -0.0007
   6234 C            9.3539   -14.5079     1.7181 C       6      r6    -0.0013
   6235 C            9.8486   -15.6271     0.9736 C       6      r6    -0.0022
   6236 C           10.3853   -12.6044     0.5295 C       5      r5    -0.0020
   6237 C           10.5870   -11.3459    -0.0561 C       7      r7    -0.0006
   6238 C           10.9343   -15.8011    -1.4029 C       6      r6    -0.0009
   6239 C           11.0264   -15.5120     0.0447 C       6      r6    -0.0012
   6240 C           11.5488   -12.8224     1.3948 C       7      r7     0.0006
   6241 C           12.3030   -11.5663     1.4438 C       7      r7     0.0029
   6242 C           13.6200   -12.8922    -1.6020 C       7      r7    -0.0070
   6243 C           13.8309   -15.4251    -2.1524 C       7      r7     0.0013
   6244 C           14.0184   -14.2234    -1.4746 C       7      r7     0.0118
   6245 C           14.4692   -11.9712    -0.9606 C       5      r5    -0.0454
   6246 C           14.9006   -14.0890    -0.3758 C       5      r5    -0.0721
   6247 C           15.1449   -12.8019    -0.0580 C       5      r5     0.2635
   6248 C           15.5922   -15.2357     0.0995 C       6      r6     0.0010
   6249 C           16.3807   -14.9269     1.2168 C       5      r5     0.1659
   6250 O           16.2832   -12.3765     0.7706 O       6      r6    -0.5189
   6251 C           16.8508   -13.6723     1.3033 C       5      r5     0.2092
   6252 C           18.1426   -13.7970     1.8218 C       7      r7    -0.0950
   6253 C           18.3889   -13.6699    -1.9238 C       7      r7     0.0091
   6254 C           19.1042   -12.7277     1.4609 C       7      r7     0.0485
   6255 C           19.2066   -12.2686     0.0855 C       7      r7     0.0210
   6256 C           19.4188   -13.2770    -0.9647 C       7      r7    -0.0027
   6257 C           20.8762   -13.3291    -1.3610 C       7      r7    -0.0033
   6258 C           22.0049   -12.9509    -0.4701 C       7      r7    -0.0017
   6259 C           22.5336   -13.7409     0.6849 C       5      r5    -0.0011
   6260 C           23.0669   -11.9980    -0.6798 C       7      r7     0.0000
   6261 C           22.9181   -15.1646     0.6092 C       6      r6     0.0001
   6262 C           22.9668   -15.6628     1.9690 C       7      r7    -0.0012
   6263 C           23.5726   -13.0621     1.4221 C       5      r5    -0.0009
   6264 C           23.8657   -12.0322     0.5425 C       5      r5    -0.0002
   6265 C           23.9008   -11.5903    -1.8444 C       7      r7     0.0005
   6266 C          -24.7934   -11.4439     1.9227 C       7      r7     0.0005
   6267 C          -24.9580    -7.7634    -1.8128 C       5      r5     0.0011
   6268 C          -24.5881    -9.0630     1.6160 C       6      r6     0.0006
   6269 C          -24.2435   -10.2093     2.3142 C       7      r7    -0.0001
   6270 C          -24.0492    -7.7489     1.9610 C       6      r6     0.0002
   6271 C          -22.6704    -7.0683    -0.6930 C       6      r6     0.0006
   6272 C          -22.2334   -11.3739    -0.3296 C       5      r5    -0.0004
   6273 C          -21.8353    -8.1188    -1.3379 C       0      r0     0.0007
   6274 C          -21.0953   -10.3961    -0.1709 C       5      r5    -0.0010
   6275 C          -20.9828    -9.0026    -0.5462 C       5      r5    -0.0006
   6276 C          -20.4859   -11.3490     1.9049 C       6      r6    -0.0001
   6277 C          -20.1712   -10.3919     0.9409 C       5      r5    -0.0010
   6278 C          -19.6990    -8.3554    -0.1335 C       5      r5    -0.0004
   6279 C          -19.2395    -9.2224     0.8835 C       5      r5    -0.0002
   6280 C          -18.9450    -7.1042    -0.5058 C       5      r5     0.0004
   6281 C          -17.9026    -8.8381     1.4597 C       6      r6     0.0004
   6282 C          -17.7066    -6.7946     0.0240 C       5      r5     0.0008
   6283 C          -17.0111   -10.9342     1.5106 C       7      r7    -0.0013
   6284 C          -17.0329    -7.9018     0.6726 C       6      r6     0.0003
   6285 C          -16.8928   -10.7726     0.0642 C       0      r0    -0.0015
   6286 C          -16.7331   -10.8030    -1.0697 C       0      r0    -0.0009
   6287 C          -15.5737    -7.8038     0.6718 C       6      r6     0.0010
   6288 C          -14.9132    -8.0323     1.9698 C       6      r6     0.0012
   6289 C          -14.6996    -7.3750    -1.8694 C       6      r6     0.0013
   6290 C          -14.7064    -7.9264    -0.4787 C       6      r6     0.0020
   6291 C          -13.5359    -8.7007    -0.1625 C       5      r5    -0.0008
   6292 C          -13.5710    -8.5335     2.2380 C       6      r6     0.0011
   6293 C          -12.8080    -9.0059     1.0808 C       5      r5     0.0002
   6294 C          -12.7193    -9.1268    -1.2413 C       5      r5     0.0002
   6295 C          -11.6353    -9.8081     0.7357 C       5      r5    -0.0025
   6296 C          -11.6394    -9.9395    -0.7090 C       5      r5    -0.0013
   6297 C          -11.0389   -10.6857    -1.8517 C       5      r5     0.0007
   6298 C          -10.5361    -6.7350     1.8042 C       7      r7    -0.0016
   6299 C          -10.4323   -10.2058     1.6261 C       0      r0    -0.0066
   6300 C           -9.8218    -7.1828    -1.2924 C       7      r7    -0.0002
   6301 C           -9.5438    -8.0649    -0.2354 C       7      r7    -0.0021
   6302 C           -9.5330    -9.2064     2.0550 C       0      r0     0.0020
   6303 C           -9.4647    -7.7845     1.3155 C       7      r7    -0.0009
   6304 C           -8.8964    -9.2464    -0.7929 C       7      r7     0.0002
   6305 C           -8.5782    -8.8059    -2.1247 C       5      r5    -0.0005
   6306 C           -7.9877    -7.4217     1.5551 C       7      r7    -0.0015
   6307 C           -7.8366    -9.9808    -0.0401 C       7      r7    -0.0036
   6308 C           -6.8261    -7.8708     0.8289 C       7      r7    -0.0019
   6309 C           -6.7000    -9.1434     0.1843 C       7      r7    -0.0009
   6310 C           -6.2281   -10.1913     2.4164 C       0      r0    -0.0024
   6311 C           -5.6396    -7.0140     1.1413 C       7      r7    -0.0005
   6312 C           -5.6427    -7.5162    -1.9697 C       0      r0     0.0009
   6313 C           -5.4404    -9.5002    -0.6751 C       7      r7    -0.0011
   6314 C           -5.1431   -10.7537    -1.1022 C       0      r0    -0.0023
   6315 C           -4.6743    -8.3304    -1.2187 C       7      r7     0.0013
   6316 C           -4.2124    -7.2882     0.8994 C       7      r7     0.0017
   6317 C           -3.7289    -8.1634    -0.1278 C       7      r7     0.0020
   6318 C           -2.7463    -9.2103     0.3693 C       7      r7     0.0000
   6319 C           -2.3646    -9.0179     1.7692 C       7      r7    -0.0004
   6320 C           -2.0823   -10.1844    -0.4398 C       7      r7     0.0003
   6321 C           -2.2005   -10.2481    -1.9297 C       7      r7     0.0007
   6322 C           -1.9192    -7.5980     1.8653 C       6      r6     0.0006
   6323 C           -1.1476   -11.1453     0.2153 C       7      r7    -0.0012
   6324 C           -0.8846    -8.1140    -2.1765 C       5      r5     0.0008
   6325 C           -0.6468   -11.1465     1.5610 C       7      r7    -0.0006
   6326 C           -0.5862    -7.1469     1.9899 C       6      r6    -0.0002
   6327 C            0.1666    -7.8078    -1.1625 C       5      r5     0.0002
   6328 C            0.4751    -8.2156     2.0743 C       5      r5    -0.0008
   6329 C            0.7580   -11.6335     1.7303 C       5      r5    -0.0003
   6330 C            1.1769    -8.6818    -0.4807 C       6      r6     0.0010
   6331 C            1.4132    -8.5578     0.9665 C       5      r5    -0.0009
   6332 C            2.3125    -9.0651    -1.3041 C       6      r6     0.0014
   6333 C            2.7058    -8.8875     1.4838 C       7      r7    -0.0019
   6334 C            3.6859    -9.1985    -0.8808 C       6      r6     0.0013
   6335 C            3.7972    -9.3100     0.5836 C       7      r7    -0.0010
   6336 C            4.7688    -9.3363    -1.8217 C       7      r7     0.0005
   6337 C            4.7823   -10.2557     1.0875 C       7      r7    -0.0013
   6338 C            5.8909   -10.2005     0.2187 C       6      r6     0.0011
   6339 C            6.0692    -9.1342    -0.9089 C       7      r7    -0.0004
   6340 C            6.2294    -7.9894     0.0361 C       0      r0    -0.0009
   6341 C            6.5037    -7.0526     1.0612 C       0      r0    -0.0015
   6342 C            6.8134   -11.3267     0.4226 C       0      r0     0.0004
   6343 C            7.3485    -9.3474    -2.1360 C       7      r7    -0.0002
   6344 C            8.0013    -6.9185     1.4867 C       7      r7     0.0001
   6345 C            8.5102    -8.8394    -1.5146 C       6      r6    -0.0003
   6346 C            8.5105    -9.2399     1.6785 C       7      r7     0.0002
   6347 C            9.1898    -9.6560    -0.6020 C       7      r7    -0.0005
   6348 C            9.1570    -7.7773    -1.9986 C       7      r7     0.0001
   6349 C            9.4305    -9.1928     0.6246 C       7      r7     0.0006
   6350 C            9.6655   -10.8284    -1.0164 C       7      r7    -0.0002
   6351 C           10.5169    -7.1305     1.1775 C       7      r7     0.0006
   6352 C           10.6513    -8.4701     0.7352 C       7      r7     0.0005
   6353 C           10.6362    -7.5632    -2.2974 C       7      r7    -0.0014
   6354 C           11.7324   -10.6422     0.5325 C       7      r7    -0.0004
   6355 C           11.9065    -9.2448     0.6988 C       7      r7     0.0004
   6356 C           12.8869    -7.3685     2.1177 C       6      r6    -0.0003
   6357 C           13.0116    -8.5556     1.2783 C       7      r7     0.0002
   6358 C           13.7561   -10.1491    -2.3070 C       6      r6    -0.0055
   6359 C           14.0997   -10.3959     2.4586 C       7      r7    -0.0049
   6360 C           14.2368    -9.2847     1.5378 C       7      r7    -0.0003
   6361 C           14.3734   -10.5055    -1.0318 C       6      r6     0.0194
   6362 C           15.4334    -9.6491    -0.4793 C       0      r0     0.0200
   6363 C           15.6036    -9.0679     0.9191 C       5      r5     0.0017
   6364 C           16.2228    -9.9964     2.0283 C       5      r5     0.0388
   6365 C           16.4431    -7.6733     0.9512 C       6      r6    -0.0017
   6366 C           16.7188    -9.5428    -1.2509 C       0      r0     0.0101
   6367 C           17.0119    -8.3227    -1.7233 C       0      r0    -0.0042
   6368 C           17.1982    -7.0972    -2.1103 C       7      r7     0.0023
   6369 C           17.5327   -10.7286    -1.8595 C       0      r0     0.0182
   6370 C           17.8575    -7.5769     1.4232 C       6      r6     0.0016
   6371 C           19.0174   -10.6932    -1.6998 C       6      r6     0.0009
   6372 C           19.6419   -10.9189    -0.3701 C       7      r7     0.0051
   6373 C           20.2707    -7.2945     0.8533 C       5      r5     0.0010
   6374 C           20.6054    -7.0871    -0.5460 C       5      r5    -0.0001
   6375 C           20.7025   -10.0295     0.0078 C       7      r7    -0.0007
   6376 C           21.2045   -10.2470     1.3412 C       7      r7    -0.0014
   6377 C           21.3823    -9.3695    -1.1571 C       7      r7    -0.0004
   6378 C           21.4675    -7.6804     1.6558 C       6      r6    -0.0001
   6379 C           21.6967    -7.9055    -1.0486 C       7      r7    -0.0003
   6380 C           21.9051    -9.0323     1.7577 C       6      r6     0.0002
   6381 C           22.7087    -7.1206    -1.7430 C       7      r7    -0.0010
   6382 C           25.0182   -11.3160     0.7277 C       6      r6     0.0008
   6383 C           25.0067   -10.7591    -1.6737 C       6      r6     0.0008
   6384 C           24.9684    -8.0001    -0.4628 C       6      r6    -0.0002
   6385 C          -25.0722   -10.4100    -0.2731 C       6      r6     0.0011
   6386 C          -25.0224    -9.1418     0.2309 C       6      r6     0.0008
   6387 C          -24.8406    -6.6399     1.4723 C       6      r6    -0.0002
   6388 C          -24.6926    -4.2669     0.7948 C       7      r7    -0.0003
   6389 C          -24.6083    -5.2428     1.8572 C       6      r6     0.0007
   6390 C          -23.7836    -6.9417    -1.6461 C       5      r5     0.0000
   6391 C          -23.6701    -3.2086     1.1687 C       7      r7     0.0005
   6392 C          -22.2663    -5.7647    -0.1087 C       6      r6     0.0001
   6393 C          -22.2617    -4.7464    -1.1719 C       6      r6    -0.0002
   6394 C          -22.1760    -5.4825     1.3281 C       7      r7     0.0000
   6395 C          -22.1867    -3.9553     1.5228 C       7      r7     0.0003
   6396 C          -21.3148    -3.7088    -0.9817 C       7      r7     0.0004
   6397 C          -21.0881    -2.8048    -2.1198 C       7      r7    -0.0002
   6398 C          -21.0056    -3.3940     0.5164 C       7      r7    -0.0007
   6399 C          -19.7644    -3.9165     1.4262 C       5      r5     0.0001
   6400 C          -18.9224    -6.2841    -1.7250 C       5      r5     0.0003
   6401 C          -18.5240    -3.9961     0.9475 C       0      r0     0.0010
   6402 C          -17.7451    -5.4221    -1.7476 C       5      r5     0.0010
   6403 C          -17.3429    -4.1199     0.4207 C       0      r0    -0.0003
   6404 C          -16.9103    -5.4038    -0.3946 C       5      r5     0.0005
   6405 C          -16.3524    -3.0278     0.6077 C       0      r0    -0.0004
   6406 C          -15.5291    -3.1240     1.8039 C       6      r6    -0.0009
   6407 C          -15.4253    -5.4332    -0.6567 C       6      r6    -0.0002
   6408 C          -15.2419    -6.0348    -1.9987 C       6      r6     0.0003
   6409 C          -15.0475    -4.4131     2.2931 C       6      r6    -0.0029
   6410 C          -14.1712    -5.3289     0.0656 C       6      r6    -0.0008
   6411 C          -14.0257    -5.2363     1.5331 C       6      r6    -0.0023
   6412 C          -12.9143    -5.2662    -0.7707 C       6      r6     0.0002
   6413 C          -13.0503    -4.9855    -2.2148 C       6      r6     0.0002
   6414 C          -12.7491    -5.6745     2.0315 C       5      r5    -0.0034
   6415 C          -11.7076    -6.2409     1.1247 C       7      r7     0.0006
   6416 C          -11.6700    -5.7993    -0.2466 C       7      r7    -0.0004
   6417 C          -10.7104    -4.6788    -2.0359 C       7      r7     0.0017
   6418 C          -10.2859    -5.6840    -0.9231 C       7      r7    -0.0002
   6419 C           -9.2649    -2.6417     0.0393 C       7      r7     0.0032
   6420 C           -9.2586    -3.9111     0.7601 C       7      r7    -0.0046
   6421 C           -9.0850    -4.9865    -0.1912 C       7      r7    -0.0002
   6422 C           -9.1150    -2.6742    -1.4002 C       7      r7     0.0284
   6423 C           -7.9201    -3.9027     1.4314 C       5      r5    -0.0010
   6424 C           -7.7518    -4.9249    -0.7105 C       5      r5    -0.0018
   6425 C           -7.3326    -5.6721    -1.8929 C       6      r6     0.0001
   6426 C           -7.0351    -4.0405     0.2991 C       5      r5    -0.0001
   6427 C           -6.1798    -6.1451     2.1952 C       7      r7     0.0002
   6428 C           -6.1745    -2.9307    -0.1140 C       6      r6     0.0008
   6429 C           -5.8948    -6.0689    -1.9755 C       6      r6     0.0013
   6430 C           -4.8446    -2.9629    -0.5612 C       5      r5    -0.0010
   6431 C           -4.1866    -4.2723    -0.4423 C       5      r5    -0.0001
   6432 C           -3.2480    -4.1350     0.6810 C       5      r5    -0.0016
   6433 C           -3.2866    -5.0371    -1.3411 C       5      r5    -0.0005
   6434 C           -3.0376    -6.5554     1.5622 C       7      r7     0.0007
   6435 C           -2.7360    -2.8282     0.3968 C       5      r5     0.0014
   6436 C           -2.3058    -5.1860     0.7720 C       5      r5    -0.0006
   6437 C           -1.9948    -5.2106    -0.7560 C       5      r5    -0.0003
   6438 C           -1.3967    -2.5753     0.5326 C       7      r7    -0.0082
   6439 C           -1.1636    -4.7673     1.4434 C       5      r5     0.0011
   6440 C           -1.0209    -5.9744    -1.4667 C       5      r5    -0.0026
   6441 C           -0.6082    -3.4974     1.2986 C       7      r7     0.0079
   6442 C           -0.2403    -5.7197     1.8675 C       5      r5    -0.0032
   6443 C            0.3240    -6.3572    -0.9520 C       5      r5    -0.0016
   6444 C            0.7702    -3.6295     1.5968 C       7      r7    -0.0512
   6445 C            0.9753    -4.9704     2.1420 C       5      r5     0.0162
   6446 C            1.6914    -2.5026     1.3796 C       7      r7     0.1709
   6447 C            1.6848    -5.8092    -0.8082 C       5      r5    -0.0007
   6448 C            2.2880    -5.5651     1.7685 C       7      r7     0.0023
   6449 C            2.6243    -5.7346    -1.9356 C       5      r5    -0.0018
   6450 C            2.5859    -5.6190     0.3555 C       7      r7     0.0034
   6451 C            3.9080    -5.1635    -1.5539 C       5      r5     0.0007
   6452 C            3.9400    -5.2593    -0.1230 C       7      r7     0.0071
   6453 C            5.0094    -4.2814    -2.1544 C       6      r6     0.0012
   6454 C            5.1853    -5.0576     0.7143 C       7      r7     0.0097
   6455 C            5.4018    -6.1101     1.6702 C       7      r7    -0.0009
   6456 C            5.8625    -3.5463    -1.1993 C       6      r6     0.0073
   6457 C            6.2102    -4.2596    -0.0040 C       6      r6     0.0027
   6458 C            7.2376    -2.5916     1.6771 C       6      r6    -0.0005
   6459 C            7.3811    -3.6782     0.6895 C       6      r6     0.0023
   6460 C            8.8047    -3.9755     0.2669 C       6      r6    -0.0023
   6461 C            9.2190    -6.4542     0.7775 C       7      r7    -0.0004
   6462 C            9.4068    -5.2992    -0.1202 C       6      r6     0.0011
   6463 C            9.6250    -2.9659     2.3378 C       6      r6    -0.0007
   6464 C            9.9513    -3.4007     0.9714 C       6      r6    -0.0016
   6465 C           10.4592    -5.2122    -1.2762 C       7      r7     0.0002
   6466 C           11.2164    -6.4807    -1.6034 C       7      r7     0.0000
   6467 C           11.3193    -3.5767     0.5165 C       7      r7     0.0001
   6468 C           11.6063    -6.6159     2.1013 C       6      r6     0.0000
   6469 C           11.7333    -4.1625    -0.7998 C       7      r7     0.0011
   6470 C           12.1621    -3.0036    -1.8338 C       5      r5     0.0012
   6471 C           12.2936    -2.7172     1.1793 C       7      r7     0.0003
   6472 C           12.6316    -6.1833    -1.8618 C       5      r5    -0.0024
   6473 C           12.9626    -4.9614    -1.1343 C       7      r7    -0.0006
   6474 C           13.4684    -3.4888     1.6230 C       7      r7     0.0009
   6475 C           13.4283    -2.4298    -2.0341 C       5      r5    -0.0027
   6476 C           14.2548    -4.4970     0.8795 C       7      r7     0.0004
   6477 C           14.2519    -4.9361    -0.5167 C       7      r7    -0.0005
   6478 C           15.0558    -5.4953     1.5090 C       5      r5    -0.0012
   6479 C           15.3266    -5.9375    -0.7653 C       5      r5     0.0003
   6480 C           15.7442    -6.4446     0.5700 C       5      r5     0.0013
   6481 C           15.9090    -2.6881    -1.0459 C       7      r7    -0.0003
   6482 C           16.0513    -6.0905    -1.9880 C       7      r7    -0.0015
   6483 C           16.5842    -2.5542     0.2038 C       7      r7     0.0009
   6484 C           16.9469    -2.6191    -2.1142 C       7      r7    -0.0004
   6485 C           17.7460    -3.3021     0.7170 C       7      r7    -0.0003
   6486 C           18.4306    -4.3225    -0.0861 C       7      r7    -0.0006
   6487 C           18.5003    -2.3078     1.4061 C       5      r5     0.0014
   6488 C           18.3625    -2.5119    -1.8008 C       7      r7     0.0005
   6489 C           19.0550    -3.7097    -1.2750 C       7      r7     0.0015
   6490 C           18.9566    -5.6064     0.0889 C       5      r5    -0.0009
   6491 C           18.9549    -6.6752     1.1023 C       5      r5    -0.0004
   6492 C           19.5153    -4.9255    -2.0199 C       5      r5     0.0003
   6493 C           19.7988    -5.9637    -1.0218 C       5      r5    -0.0003
   6494 C           19.8988    -2.4352     1.8005 C       7      r7     0.0005
   6495 C           20.9455    -3.1204     1.0094 C       7      r7    -0.0001
   6496 C           21.5508    -5.2463     2.3698 C       0      r0    -0.0000
   6497 C           21.9010    -3.9540     1.7123 C       7      r7     0.0002
   6498 C           22.2456    -6.5939     2.2259 C       6      r6    -0.0009
   6499 C           22.7513    -4.7093    -2.2101 C       6      r6     0.0003
   6500 C           22.9260    -2.9727     2.1886 C       7      r7     0.0007
   6501 C           23.1029    -5.7785    -1.3348 C       6      r6     0.0005
   6502 C           23.2732    -3.3361    -1.9048 C       6      r6    -0.0001
   6503 C           24.1377    -5.6106    -0.3094 C       6      r6     0.0002
   6504 C           24.4992    -3.2468    -1.1594 C       7      r7    -0.0003
   6505 C           24.7961    -6.7625     0.2858 C       6      r6     0.0000
   6506 C           24.8600    -4.3884    -0.2806 C       7      r7    -0.0003
   6507 C           25.2066    -0.4861     1.8787 C       5      r5     0.0021
   6508 C           25.2078    -1.9994    -1.5207 C       7      r7    -0.0003
   6509 C          -25.1434     0.9461     1.7254 C       7      r7     0.0014
   6510 C          -24.1306    -1.4112    -0.7943 C       7      r7     0.0000
   6511 C          -23.8745     1.6249     1.8713 C       7      r7    -0.0002
   6512 C          -23.5656    -0.1269    -1.2482 C       7      r7     0.0003
   6513 C          -23.3579    -2.0311     0.2637 C       7      r7    -0.0001
   6514 C          -22.3292    -0.0838    -0.4523 C       5      r5     0.0005
   6515 C          -22.1173    -1.3393     0.2512 C       5      r5     0.0009
   6516 C          -21.4252     0.6990    -1.2634 C       5      r5     0.0004
   6517 C          -20.7895    -1.9218     0.5868 C       7      r7    -0.0002
   6518 C          -20.1210     1.2410    -0.8932 C       5      r5     0.0011
   6519 C          -19.8756    -2.0230    -2.0415 C       7      r7     0.0011
   6520 C          -19.4824     0.8673     0.3514 C       5      r5     0.0001
   6521 C          -19.1114     2.1214     0.9418 C       5      r5     0.0000
   6522 C          -19.3697    -1.5887     0.3884 C       7      r7     0.0001
   6523 C          -18.8966    -1.9237    -0.9108 C       7      r7     0.0005
   6524 C          -18.7372    -0.3242     0.8724 C       6      r6    -0.0002
   6525 C          -18.3406     1.7928     2.1746 C       7      r7    -0.0013
   6526 C          -17.5164    -1.7641    -1.2964 C       6      r6    -0.0002
   6527 C          -17.4114    -0.2127     1.4528 C       7      r7    -0.0010
   6528 C          -17.1351     1.2297     1.5390 C       7      r7    -0.0013
   6529 C          -16.3519     1.9739     0.5277 C       7      r7    -0.0016
   6530 C          -16.3716    -1.9956    -0.4506 C       6      r6    -0.0016
   6531 C          -15.1707    -1.4444    -1.1178 C       6      r6    -0.0004
   6532 C          -14.9593     1.6321     0.2546 C       7      r7    -0.0002
   6533 C          -14.5364     0.8223     1.4163 C       7      r7     0.0014
   6534 C          -14.2769     2.2236    -2.0900 C       6      r6    -0.0006
   6535 C          -13.9349    -1.0203    -0.4834 C       6      r6     0.0098
   6536 C          -13.9459     2.1734    -0.6905 C       6      r6     0.0020
   6537 C          -13.9324    -0.4064     0.8672 C       6      r6    -0.0082
   6538 C          -12.7102    -0.9965    -1.3225 C       6      r6    -0.0647
   6539 C          -12.6576    -0.4710     1.5942 C       6      r6     0.0078
   6540 C          -11.5202    -0.5275    -0.6782 C       6      r6     0.2688
   6541 C          -11.4971    -0.6527     0.7409 C       6      r6    -0.0496
   6542 O          -10.3185    -0.0845    -1.3884 O       6      r6    -0.5284
   6543 C          -10.2149    -0.7473     1.4400 C       6      r6     0.0324
   6544 C           -9.0507    -1.3586     0.7640 C       7      r7     0.0282
   6545 C           -8.1831     1.0853    -0.5447 C       6      r6     0.0371
   6546 C           -8.0409    -2.0532    -2.1354 C       7      r7     0.0080
   6547 C           -8.1672     1.7104     1.8600 C       6      r6     0.0008
   6548 C           -7.9085     0.3173    -1.6551 C       6      r6     0.0373
   6549 C           -8.0264     0.6814     0.8283 C       6      r6     0.0048
   6550 C           -7.7669    -0.7712     0.8215 C       7      r7     0.0008
   6551 C           -7.3750    -0.9904    -1.4331 C       7      r7     0.0029
   6552 C           -6.6702    -1.3761    -0.0809 C       7      r7     0.0002
   6553 C           -5.4432    -0.3867     0.0880 C       7      r7     0.0005
   6554 C           -5.3239     0.6378    -0.9055 C       7      r7    -0.0035
   6555 C           -5.1727     0.0954    -2.2704 C       7      r7    -0.0015
   6556 C           -4.8282     1.9949    -0.6199 C       7      r7     0.0002
   6557 C           -4.8684     2.0978     0.9556 C       7      r7    -0.0007
   6558 C           -4.2675    -0.7829     0.8466 C       7      r7    -0.0001
   6559 C           -3.6733    -1.9080    -0.1943 C       7      r7    -0.0011
   6560 C           -3.7281     1.4665     1.6144 C       7      r7    -0.0017
   6561 C           -3.3497     0.0228     1.6023 C       7      r7    -0.0016
   6562 C           -3.1250    -1.2132    -1.4344 C       7      r7    -0.0018
   6563 C           -1.7402    -1.2391    -1.5325 C       6      r6    -0.0025
   6564 C           -0.9155    -1.6596    -0.3886 C       7      r7     0.0106
   6565 C            0.4086    -1.1475    -0.3846 C       7      r7    -0.0484
   6566 C            0.6909    -0.2522    -1.5483 C       5      r5     0.0160
   6567 C            1.4299    -1.4535     0.5843 C       7      r7     0.1590
   6568 C            1.7497     2.0471     1.0215 C       7      r7    -0.0022
   6569 C            1.9051     0.3307    -1.9267 C       5      r5    -0.0029
   6570 O            2.7639    -1.4426     1.2914 O       3      r3    -0.4586
   6571 C            2.6705     1.0958     0.3789 C       5      r5     0.0148
   6572 C            2.7927     0.6537    -0.9737 C       5      r5     0.0099
   6573 C            3.7844     0.6402     1.0679 C       7      r7     0.0489
   6574 C            4.1204     0.1232    -1.1078 C       5      r5     0.0007
   6575 C            4.5837    -0.1063     0.1855 C       7      r7     0.0386
   6576 C            5.6757    -0.9994     0.5215 C       7      r7     0.0174
   6577 C            6.1015    -1.5522     1.7576 C       7      r7     0.0220
   6578 C            6.4447    -2.1810    -1.5039 C       6      r6     0.0040
   6579 C            6.6994    -1.0411    -0.6024 C       6      r6    -0.0067
   6580 C            6.9511     1.6406    -0.6106 C       7      r7    -0.0045
   6581 C            7.2988     0.2178    -0.9755 C       7      r7    -0.0026
   6582 C            8.1010     0.0840    -2.1844 C       7      r7    -0.0009
   6583 C           10.0634     0.2629     1.8004 C       5      r5    -0.0018
   6584 C           10.4220     1.6403     1.6939 C       5      r5    -0.0012
   6585 C           11.1131    -0.5564     1.1290 C       6      r6    -0.0025
   6586 C           11.6329    -1.6329     1.8914 C       7      r7     0.0005
   6587 C           11.6484     2.1569     1.2823 C       6      r6     0.0001
   6588 C           12.1164     0.1147     0.2606 C       7      r7     0.0003
   6589 C           12.6631     1.3894     0.6694 C       7      r7    -0.0010
   6590 C           13.0113    -0.4179    -0.8144 C       7      r7    -0.0017
   6591 C           13.9752     1.7567     0.9920 C       7      r7    -0.0014
   6592 C           14.3065    -0.9180    -0.3486 C       7      r7     0.0006
   6593 C           14.5395    -2.1112    -1.1255 C       6      r6     0.0010
   6594 C           15.1479     0.9014     1.1603 C       7      r7    -0.0017
   6595 C           15.2486    -0.4059     0.6526 C       7      r7    -0.0015
   6596 C           16.3964    -1.2937     0.8995 C       7      r7    -0.0001
   6597 C           16.2736     1.5054     1.8693 C       7      r7    -0.0020
   6598 C           17.6178    -1.1762     1.5872 C       7      r7     0.0001
   6599 C           17.9420    -0.0331    -2.1476 C       6      r6     0.0002
   6600 C           17.9051     1.3602    -1.6347 C       6      r6    -0.0001
   6601 C           18.6755     1.6995    -0.4365 C       6      r6    -0.0003
   6602 C           18.7953    -1.0664    -1.5908 C       6      r6     0.0001
   6603 C           19.7760     0.7363    -0.3064 C       5      r5     0.0015
   6604 C           19.9323    -0.6484    -0.8097 C       5      r5     0.0005
   6605 C           21.1090     1.3329    -0.1833 C       7      r7     0.0001
   6606 C           21.3302    -0.9763    -0.4832 C       5      r5     0.0004
   6607 C           21.8204    -2.0728     0.3950 C       5      r5    -0.0000
   6608 C           22.0671     0.2555    -0.1387 C       7      r7     0.0004
   6609 C           23.1311    -2.0372     1.0707 C       5      r5    -0.0004
   6610 C           23.2846     0.3769     0.6346 C       7      r7     0.0004
   6611 C           23.9220    -0.7907     1.1725 C       5      r5     0.0005
   6612 C           24.0726     1.5066     1.1158 C       7      r7    -0.0001
   6613 C          -24.9939     6.1234     0.7431 C       7      r7    -0.0029
   6614 C          -24.7729     5.4213    -0.5644 C       5      r5     0.0087
   6615 C          -24.6285     4.0545     1.9986 C       7      r7     0.0002
   6616 C          -24.3225     5.4693     1.9035 C       7      r7     0.0000
   6617 C          -23.7418     4.2314    -2.2653 C       5      r5    -0.0006
   6618 C          -23.7062     3.0550     1.4592 C       7      r7    -0.0025
   6619 C          -23.5168     4.7486    -0.9081 C       5      r5    -0.0039
   6620 C          -22.3927     3.6479     1.1307 C       6      r6    -0.0012
   6621 C          -22.3574     4.5923     0.0148 C       0      r0    -0.0017
   6622 C          -21.3988     3.2460     2.1067 C       6      r6    -0.0009
   6623 C          -20.9876     5.2020    -0.0579 C       0      r0    -0.0013
   6624 C          -20.8769     6.5765    -0.5170 C       6      r6     0.0128
   6625 C          -19.8144     2.6199    -1.2364 C       5      r5    -0.0002
   6626 C          -19.6804     4.6454     0.2619 C       0      r0     0.0005
   6627 C          -19.3456     3.2144    -0.0125 C       5      r5    -0.0005
   6628 C          -18.5112     5.3839     0.8598 C       0      r0     0.0085
   6629 C          -18.1364     5.3513    -1.5664 C       0      r0     0.0007
   6630 C          -17.7922     5.9689    -0.2254 C       0      r0     0.0045
   6631 C          -17.5122     4.0958    -2.0483 C       5      r5    -0.0002
   6632 C          -16.2481     3.4042     0.7128 C       7      r7    -0.0007
   6633 C          -16.1487     3.8632    -1.6543 C       5      r5    -0.0018
   6634 C          -16.0417     3.6890     2.1592 C       7      r7    -0.0013
   6635 C          -15.5779     4.2526    -0.3008 C       0      r0    -0.0010
   6636 C          -14.4622     5.0818    -0.1568 C       0      r0    -0.0014
   6637 C          -14.4342     6.3043     2.1258 C       5      r5    -0.0017
   6638 C          -13.8896     5.2488     1.2348 C       6      r6    -0.0009
   6639 C          -13.9658     6.1297    -1.1990 C       0      r0    -0.0017
   6640 C          -12.8174     4.3734     1.6658 C       6      r6    -0.0004
   6641 C          -12.5580     2.5359    -0.3276 C       6      r6    -0.0031
   6642 C          -12.6751     6.5878    -1.2010 C       0      r0    -0.0019
   6643 C          -12.1636     3.1669     0.9833 C       6      r6     0.0009
   6644 C          -11.4821     2.4693    -1.3043 C       6      r6     0.0312
   6645 C          -11.1361     2.8006     1.7639 C       6      r6     0.0075
   6646 C          -10.0736     2.9035    -1.3133 C       6      r6     0.0181
   6647 C           -9.8467     4.1121    -2.1570 C       7      r7    -0.0057
   6648 C           -9.1469     6.4915    -1.7633 C       7      r7    -0.0001
   6649 C           -9.1484     6.5756     1.5068 C       7      r7     0.0000
   6650 C           -8.8334     2.4034    -0.6802 C       6      r6     0.0153
   6651 C           -8.9333     5.0704    -1.4871 C       7      r7    -0.0007
   6652 C           -8.4718     5.3364     1.1471 C       7      r7    -0.0002
   6653 C           -8.3593     4.7017    -0.1686 C       7      r7     0.0001
   6654 C           -8.0301     4.2599     2.0256 C       5      r5    -0.0002
   6655 C           -7.9289     3.3398     0.0040 C       5      r5    -0.0079
   6656 C           -7.4010     2.9843     1.4220 C       5      r5    -0.0003
   6657 C           -5.7548     2.9100     1.6974 C       6      r6    -0.0013
   6658 C           -5.2218     6.6708    -0.2406 C       6      r6    -0.0004
   6659 C           -4.4347     5.2701    -2.0112 C       6      r6    -0.0003
   6660 C           -4.3244     5.5735    -0.5843 C       6      r6    -0.0004
   6661 C           -4.2212     6.6398     2.1959 C       7      r7    -0.0001
   6662 C           -4.2072     2.9316    -1.4669 C       0      r0    -0.0014
   6663 C           -3.2356     5.3285     0.3748 C       6      r6     0.0008
   6664 C           -3.0424     5.9194     1.7410 C       7      r7     0.0007
   6665 C           -2.1628     6.0713    -1.4550 C       0      r0     0.0009
   6666 C           -2.0299     5.0560    -0.4278 C       0      r0     0.0012
   6667 C           -1.4883     2.5136     2.0136 C       7      r7    -0.0006
   6668 C           -0.8842     4.2052    -0.2785 C       0      r0     0.0001
   6669 C           -0.7739     3.0563     0.7720 C       7      r7     0.0004
   6670 C           -0.5059     6.3814     1.9806 C       6      r6    -0.0001
   6671 C            0.0329     4.6322    -1.3030 C       6      r6     0.0002
   6672 C            0.5017     2.5840     0.6647 C       7      r7     0.0009
   6673 C            0.9085     5.8047    -1.0512 C       6      r6    -0.0006
   6674 C            2.0993     5.7852    -1.9140 C       6      r6    -0.0000
   6675 C            3.5327     5.6081     1.7498 C       6      r6    -0.0007
   6676 C            4.4808     5.5628     0.6510 C       7      r7    -0.0005
   6677 C            5.0374     4.6331    -1.9884 C       7      r7    -0.0010
   6678 C            5.4076     4.3483     0.3497 C       7      r7    -0.0006
   6679 C            5.7646     3.8491    -1.0259 C       7      r7    -0.0014
   6680 C            5.7659     3.5618     1.4838 C       7      r7    -0.0031
   6681 C            6.0851     2.4282    -1.3676 C       7      r7    -0.0020
   6682 C            7.0270     2.7662     1.6132 C       7      r7    -0.0011
   6683 C            7.7716     2.4775     0.3592 C       7      r7    -0.0023
   6684 C            9.0399     2.9237    -0.2227 C       7      r7    -0.0026
   6685 C            9.2023     6.1571    -2.3011 C       6      r6     0.0003
   6686 C            9.3384     2.4429    -1.7185 C       7      r7     0.0011
   6687 C            9.8817     4.0404     0.2209 C       6      r6     0.0002
   6688 C           10.1231     6.3272    -1.0112 C       6      r6    -0.0011
   6689 C           10.5776     4.8476    -0.7365 C       6      r6    -0.0009
   6690 C           10.5803     4.3058     1.7532 C       5      r5     0.0004
   6691 C           10.8262     2.7435    -1.9088 C       5      r5    -0.0071
   6692 C           11.2968     4.0942    -1.7751 C       5      r5     0.0025
   6693 C           11.4514     5.5462     1.8991 C       5      r5    -0.0001
   6694 C           11.7902     3.4736     1.5343 C       5      r5    -0.0004
   6695 C           12.8697     5.4836     1.8280 C       5      r5     0.0006
   6696 C           13.0158     4.0700     1.4534 C       5      r5    -0.0007
   6697 C           13.5603     6.1881    -1.5266 C       6      r6    -0.0012
   6698 C           14.0950     3.1528     1.2563 C       6      r6    -0.0020
   6699 C           14.9988     6.1175    -1.1703 C       6      r6    -0.0007
   6700 C           15.3226     3.6642     1.6767 C       6      r6     0.0018
   6701 C           15.8391     4.7598     0.9810 C       7      r7    -0.0009
   6702 C           16.0596     5.9460     1.7068 C       7      r7     0.0043
   6703 C           16.1535     5.1541    -1.4426 C       5      r5    -0.0009
   6704 C           16.0780     2.8353     2.3879 C       5      r5     0.0042
   6705 C           16.5202     4.4129    -0.2613 C       7      r7    -0.0015
   6706 C           17.4302     2.4860    -2.4286 C       6      r6     0.0008
   6707 C           18.0211     4.1910    -0.3584 C       7      r7    -0.0012
   6708 C           18.0259     3.8841    -1.9871 C       7      r7    -0.0012
   6709 C           18.5153     5.6678     1.5974 C       7      r7     0.0002
   6710 C           18.7265     2.9969     0.2489 C       7      r7    -0.0006
   6711 C           18.7238     5.6905     0.1061 C       7      r7    -0.0011
   6712 C           19.9333     3.1676     1.0442 C       7      r7     0.0001
   6713 C           20.2185     5.8319    -0.3337 C       7      r7     0.0008
   6714 C           20.5873     4.1852    -2.2270 C       7      r7     0.0007
   6715 C           20.9878     4.7691    -0.9387 C       7      r7    -0.0012
   6716 C           21.2202     2.6112     0.4817 C       7      r7    -0.0011
   6717 C           22.3528     4.5032    -0.3658 C       7      r7     0.0021
   6718 C           22.4911     3.3572     0.4991 C       7      r7     0.0003
   6719 C           22.7062     6.5848    -1.7037 C       7      r7     0.0471
   6720 C           23.2835     5.3494    -1.0806 C       7      r7    -0.0025
   6721 C           23.7000     2.8863     1.2689 C       7      r7     0.0003
   6722 C           24.3771     3.7895     2.2278 C       7      r7     0.0003
   6723 C           24.6656     5.0877    -1.5159 C       5      r5     0.0066
   6724 C          -24.2407     9.6363     1.3216 C       7      r7     0.0066
   6725 C          -24.0051     8.2992     0.7985 C       7      r7     0.0107
   6726 C          -23.5612     8.3626    -2.1437 C       7      r7     0.0244
   6727 C          -23.1646    10.4380     1.9943 C       7      r7     0.0122
   6728 C          -22.7874     7.4723     0.9247 C       7      r7     0.0094
   6729 C          -22.4064     8.5176    -1.2537 C       7      r7     0.0020
   6730 C          -21.9078     7.5527    -0.2244 C       6      r6     0.0369
   6731 C          -21.2906     9.2146    -1.9253 C       7      r7     0.0098
   6732 C          -20.8421    10.5874    -1.7251 C       0      r0     0.0069
   6733 C          -19.9517     6.9675    -1.5867 C       6      r6     0.0083
   6734 O          -19.8217     8.9931     1.3794 O       6      r6    -0.5159
   6735 C          -19.3931    10.4866    -1.4986 C       5      r5     0.0281
   6736 C          -18.5246     9.2324     0.6294 C       7      r7     0.2457
   6737 C          -18.4306     9.7790    -0.6187 C       7      r7    -0.0474
   6738 C          -17.1404     9.1270     1.3561 C       7      r7    -0.0484
   6739 C          -16.9043     9.6820    -1.1566 C       7      r7     0.0010
   6740 C          -16.8508     7.1933    -0.2011 C       7      r7    -0.0027
   6741 C          -16.5302     8.1549    -1.2366 C       7      r7    -0.0005
   6742 C          -16.6095     7.6718     1.1647 C       7      r7     0.0112
   6743 C          -15.9978    10.1576     1.1226 C       7      r7     0.0065
   6744 C          -15.8470    10.4271    -0.1954 C       7      r7    -0.0018
   6745 C          -15.4659     7.3210     1.9655 C       5      r5    -0.0017
   6746 C          -15.4844     7.8439    -2.2572 C       0      r0    -0.0002
   6747 C          -14.8289    10.6754     1.9031 C       7      r7    -0.0038
   6748 C          -14.6922    11.2761    -0.3801 C       7      r7     0.0019
   6749 C          -13.9079    11.0656     0.8447 C       7      r7    -0.0014
   6750 C          -12.5403    10.4266     0.8545 C       7      r7     0.0002
   6751 C          -12.3540     9.5174    -1.7964 C       7      r7     0.0011
   6752 C          -11.9410     9.9748    -0.3967 C       7      r7     0.0005
   6753 C          -11.7534    10.3566     2.1211 C       7      r7     0.0000
   6754 C          -11.5160     7.1557    -1.4918 C       0      r0     0.0003
   6755 C          -10.5914     9.5061     1.9834 C       7      r7     0.0011
   6756 C          -10.5019     9.7759    -0.4242 C       7      r7     0.0012
   6757 C          -10.1477     6.9467    -0.7917 C       7      r7    -0.0002
   6758 C          -10.2073     8.8596     0.6960 C       7      r7     0.0018
   6759 C           -9.8280     7.4502     0.5578 C       7      r7    -0.0001
   6760 C           -9.7948    10.2254    -1.6599 C       7      r7    -0.0006
   6761 C           -8.3703    10.2602    -1.2326 C       6      r6    -0.0014
   6762 C           -8.0272    10.9805     0.0577 C       6      r6    -0.0017
   6763 C           -7.2942     9.3485    -1.6752 C       6      r6    -0.0013
   6764 C           -7.1947    10.2516     1.0324 C       7      r7    -0.0004
   6765 C           -6.9840     8.3334    -0.6605 C       6      r6     0.0003
   6766 C           -6.8160     8.8378     0.7247 C       7      r7     0.0012
   6767 C           -6.1697     7.2455    -1.2159 C       6      r6    -0.0002
   6768 C           -5.9249     8.1952     1.6663 C       7      r7     0.0008
   6769 C           -5.3457    10.9278    -1.6911 C       5      r5    -0.0023
   6770 C           -5.1488     7.0970     1.1133 C       5      r5     0.0002
   6771 C           -4.6505    10.7802    -0.4135 C       5      r5    -0.0027
   6772 C           -4.1033    10.8176     1.6866 C       7      r7     0.0023
   6773 C           -3.6054     9.7348    -0.3724 C       5      r5    -0.0007
   6774 C           -3.3787     9.7287     1.0972 C       5      r5     0.0011
   6775 C           -2.3927     9.6679    -1.1606 C       6      r6     0.0002
   6776 C           -2.2146     9.0614     1.7200 C       6      r6     0.0004
   6777 C           -1.3379     8.3909     0.7337 C       6      r6    -0.0002
   6778 C           -1.1538     9.2428    -0.4690 C       6      r6     0.0033
   6779 C           -0.4105     7.2558     0.7472 C       6      r6    -0.0004
   6780 C            0.0862     9.3906    -1.2249 C       6      r6     0.0019
   6781 C            0.4227     7.0388    -0.4098 C       6      r6    -0.0004
   6782 C            0.9571     8.2897    -1.0302 C       6      r6    -0.0003
   6783 C            1.9133     8.2152    -2.1088 C       5      r5    -0.0014
   6784 C            2.9028     6.7701     2.2144 C       6      r6     0.0001
   6785 C            3.4503     8.0201     1.7954 C       7      r7    -0.0000
   6786 C            4.1140     7.9171     0.5643 C       7      r7     0.0009
   6787 C            4.3403    10.4268     0.0616 C       7      r7    -0.0000
   6788 C            4.4531     9.0311    -0.2598 C       7      r7    -0.0001
   6789 C            4.6264    10.9171     1.4122 C       7      r7    -0.0011
   6790 C            4.5920     6.7444    -0.1043 C       7      r7     0.0014
   6791 C            5.0199     8.5818    -1.4742 C       5      r5    -0.0003
   6792 C            5.0453     7.1180    -1.4693 C       7      r7     0.0015
   6793 C            5.3251    11.0183    -2.1993 C       7      r7    -0.0020
   6794 C            5.7454     9.6160    -2.2486 C       7      r7    -0.0010
   6795 C            6.0558    11.3642     1.6863 C       0      r0    -0.0011
   6796 C            7.2326    11.4310     0.6504 C       5      r5     0.0000
   6797 C            7.8443     8.1694    -1.8397 C       6      r6     0.0010
   6798 C            8.1283     8.8934     0.6876 C       5      r5     0.0007
   6799 C            8.1094    10.3174     0.3053 C       5      r5     0.0004
   6800 C            8.2612     7.9999    -0.4496 C       5      r5     0.0015
   6801 C            9.1098     8.5260     1.6854 C       5      r5     0.0003
   6802 C            9.1906     6.9558    -0.0009 C       5      r5     0.0002
   6803 C            9.1744    10.8271    -0.5947 C       5      r5     0.0001
   6804 C            9.6831     7.2287     1.3035 C       5      r5     0.0012
   6805 C            9.9533     9.9090    -1.4064 C       0      r0     0.0004
   6806 C           10.8961     6.8427     2.0601 C       6      r6     0.0001
   6807 C           11.0536     8.9515    -1.0056 C       5      r5     0.0000
   6808 C           11.2149     7.5182    -1.0231 C       5      r5    -0.0011
   6809 C           12.3409     9.6909    -0.8464 C       7      r7     0.0006
   6810 C           12.6178     7.2703    -0.9497 C       5      r5    -0.0017
   6811 C           12.5415    10.7966    -1.8103 C       7      r7     0.0004
   6812 C           13.2436     8.5765    -0.6275 C       7      r7    -0.0002
   6813 C           14.6997     8.5603    -0.6296 C       7      r7     0.0002
   6814 C           15.4939     9.6018    -1.2976 C       7      r7     0.0004
   6815 C           15.5059     7.3079    -0.5830 C       5      r5    -0.0014
   6816 C           16.8576     9.1209    -0.9842 C       7      r7    -0.0001
   6817 C           16.9703     7.7392    -0.5169 C       5      r5    -0.0014
   6818 C           17.9966     9.8869    -0.7691 C       7      r7    -0.0007
   6819 C           18.1228    11.0975    -1.4149 C       7      r7    -0.0003
   6820 C           18.2204     7.1316    -0.3039 C       5      r5    -0.0005
   6821 C           19.2811     9.3594    -0.6437 C       7      r7    -0.0056
   6822 C           19.3266     7.9708    -0.4935 C       7      r7    -0.0020
   6823 C           20.2552    10.3716    -0.8476 C       7      r7     0.0089
   6824 C           20.6019     7.2079    -0.4437 C       7      r7     0.0037
   6825 C           21.6850    10.1316    -0.9810 C       7      r7    -0.0387
   6826 C           21.9015     7.6182    -0.9977 C       7      r7    -0.0364
   6827 C           22.4223     8.9548    -0.9695 C       7      r7     0.2192
   6828 C           22.6801    11.1955    -1.0874 C       7      r7    -0.0393
   6829 O           23.9481     9.1406    -1.2219 O       5      r5    -0.5118
   6830 C           24.0017    10.5881    -1.2057 C       5      r5     0.2527
   6831 C           24.2233     8.3706     1.6478 C       5      r5     0.0154
   6832 C           24.8139     9.7260     1.6871 C       7      r7     0.0113
   6833 C           25.1685     7.5767     0.8658 C       7      r7     0.0382
   6834 C          -24.6307    12.3838     1.1559 C       7      r7    -0.0017
   6835 C          -24.5293    13.1767    -0.0579 C       7      r7     0.0006
   6836 C          -24.3888    14.6111     0.1866 C       7      r7    -0.0022
   6837 C          -23.7604    15.0240     1.4276 C       7      r7    -0.0023
   6838 C          -23.3627    11.8944     1.6962 C       7      r7     0.0006
   6839 C          -22.6240    14.3262     2.0789 C       7      r7    -0.0028
   6840 C          -22.3480    12.9127     1.7168 C       7      r7    -0.0026
   6841 C          -21.6902    11.7628    -2.0792 C       0      r0     0.0015
   6842 C          -21.0384    12.8669    -1.3288 C       5      r5    -0.0001
   6843 C          -21.0172    12.3828     1.3883 C       6      r6     0.0082
   6844 C          -20.5421    12.7063     0.0650 C       5      r5     0.0066
   6845 C          -19.9651    13.7178    -1.8882 C       5      r5    -0.0016
   6846 C          -19.1354    12.9493     0.1417 C       5      r5     0.0016
   6847 C          -18.7564    13.6415    -1.1068 C       5      r5     0.0001
   6848 C          -18.1670    12.6156     1.1512 C       7      r7     0.0008
   6849 C          -17.3691    14.0247    -1.3613 C       6      r6     0.0001
   6850 C          -16.8224    13.1966     1.0251 C       7      r7    -0.0011
   6851 C          -16.4310    13.8836    -0.1994 C       6      r6     0.0000
   6852 C          -15.7625    15.0697     2.2000 C       6      r6    -0.0027
   6853 C          -15.0460    15.5380     1.0258 C       6      r6    -0.0000
   6854 C          -15.1722    14.6745    -0.1533 C       6      r6    -0.0007
   6855 C          -14.2925    11.9827    -1.6708 C       7      r7     0.0004
   6856 C          -13.8415    14.3116    -0.6313 C       5      r5    -0.0007
   6857 C          -13.5162    13.2366    -1.5734 C       5      r5    -0.0022
   6858 C          -12.6582    15.1699    -0.2623 C       5      r5    -0.0023
   6859 C          -12.1777    13.7012    -2.0229 C       5      r5    -0.0012
   6860 C          -11.5421    14.6101    -1.0744 C       5      r5    -0.0025
   6861 C          -10.2324    15.0964    -1.5579 C       6      r6     0.0001
   6862 C           -9.0802    14.1580    -1.5907 C       0      r0     0.0052
   6863 C           -8.7925    13.6082    -0.1766 C       0      r0    -0.0011
   6864 C           -8.4912    14.7327     0.9036 C       0      r0    -0.0023
   6865 C           -8.4245    12.3313     0.0220 C       0      r0    -0.0028
   6866 C           -7.4537    15.4260     0.4095 C       0      r0     0.0019
   6867 C           -5.2536    15.2866    -0.9276 C       7      r7    -0.0068
   6868 C           -4.6833    13.2021     0.7240 C       7      r7     0.0020
   6869 C           -4.6350    11.7280     0.6750 C       7      r7     0.0007
   6870 C           -4.5244    13.7761     2.1087 C       7      r7    -0.0031
   6871 C           -4.5403    14.0671    -0.4918 C       0      r0     0.0153
   6872 C           -3.4723    13.4230    -1.2989 C       0      r0    -0.0519
   6873 C           -3.0850    15.5757     1.6616 C       5      r5    -0.0457
   6874 C           -2.1919    15.6478     0.5624 C       5      r5     0.2521
   6875 C           -2.0547    13.4351    -0.8382 C       0      r0     0.2323
   6876 O           -1.3720    14.4633     0.1166 O       0      r0    -0.4923
   6877 C           -1.2830    12.5373    -1.3731 C       0      r0    -0.0364
   6878 C           -0.1035    11.9207    -1.6672 C       0      r0     0.0173
   6879 C            0.8584    12.8041    -1.2042 C       0      r0     0.0267
   6880 C            1.8336    13.6738    -0.7285 C       6      r6     0.0230
   6881 C            2.2295    15.0764    -1.4995 C       6      r6     0.0036
   6882 C            2.9252    13.1622     0.1017 C       6      r6    -0.0008
   6883 C            3.4502    13.9245     1.2237 C       5      r5     0.0101
   6884 C            3.6624    14.8418    -2.0578 C       6      r6    -0.0041
   6885 C            4.0365    12.6907    -0.7616 C       6      r6    -0.0032
   6886 C            4.5029    13.6780    -1.7469 C       6      r6    -0.0015
   6887 C            4.5017    11.3534    -1.0341 C       6      r6     0.0004
   6888 C            4.7046    14.7506     1.1790 C       7      r7    -0.0026
   6889 C            7.3573    15.0118     1.3197 C       7      r7    -0.0010
   6890 C            7.8655    12.6460     0.1582 C       5      r5    -0.0002
   6891 C            8.1967    13.8020     1.0047 C       6      r6     0.0007
   6892 C            8.7399    13.2579     2.2635 C       7      r7     0.0009
   6893 C            8.6741    15.4340    -1.0323 C       0      r0     0.0013
   6894 C            9.0470    12.3100    -0.6719 C       5      r5     0.0006
   6895 C            8.9406    14.3987    -1.9660 C       6      r6     0.0005
   6896 C            9.7509    13.1793    -1.5978 C       6      r6    -0.0000
   6897 C           10.9074    12.6415    -2.2926 C       7      r7    -0.0002
   6898 C           11.0921    12.7975     1.9102 C       7      r7     0.0000
   6899 C           11.7405    12.7830     0.7559 C       0      r0    -0.0000
   6900 C           12.0488    12.1350    -1.5089 C       7      r7    -0.0004
   6901 C           12.5685    12.8699    -0.3317 C       0      r0    -0.0001
   6902 C           13.8048    13.7717    -0.1861 C       5      r5    -0.0003
   6903 C           13.9978    14.9382    -1.0420 C       7      r7     0.0005
   6904 C           15.0883    13.2037     0.1739 C       5      r5     0.0015
   6905 C           15.3875    15.0404    -1.2654 C       7      r7     0.0013
   6906 C           15.4431    12.4964     1.4405 C       6      r6     0.0003
   6907 C           16.0752    13.9285    -0.6779 C       7      r7     0.0022
   6908 C           16.8478    12.6664     1.6641 C       5      r5    -0.0014
   6909 C           17.5374    13.6973    -0.5737 C       7      r7     0.0005
   6910 C           17.8082    13.2405     0.7690 C       5      r5    -0.0015
   6911 C           18.6511    13.8764    -1.5340 C       7      r7    -0.0004
   6912 C           18.9863    13.7499     1.5097 C       5      r5    -0.0009
   6913 C           19.4683    11.5650    -1.1612 C       7      r7    -0.0009
   6914 C           19.8038    12.9152    -1.3947 C       7      r7    -0.0007
   6915 C           20.0231    15.6124     0.0992 C       5      r5    -0.0006
   6916 C           20.2089    14.4034     0.9577 C       5      r5    -0.0009
   6917 C           21.1036    15.5016    -2.1775 C       7      r7     0.0010
   6918 C           21.2337    13.2165    -1.6543 C       7      r7     0.0011
   6919 C           21.2888    15.7132    -0.7615 C       5      r5     0.0001
   6920 C           21.6377    14.2920     0.9801 C       5      r5     0.0002
   6921 C           22.1777    13.1014     1.6018 C       7      r7    -0.0001
   6922 C           22.3789    15.1515    -0.0393 C       5      r5    -0.0014
   6923 C           22.5451    12.5967    -1.1822 C       7      r7     0.0053
   6924 C           23.7414    13.4554    -1.0278 C       6      r6    -0.0081
   6925 C           23.6256    13.3798     2.0444 C       7      r7    -0.0035
   6926 C           23.7388    14.8610    -0.6185 C       6      r6     0.0018
   6927 C           24.5736    12.2262     1.8673 C       7      r7    -0.0020
   6928 C           25.0493    12.7826    -1.1373 C       6      r6     0.0036
   6929 C           25.1176    11.3969    -1.6020 C       6      r6    -0.0480
   6930 C           25.0991    15.4849    -0.5454 C       6      r6    -0.0015
   6931 C          -25.0363    19.1046     0.4823 C       0      r0     0.0017
   6932 C          -24.8478    16.6096    -1.2483 C       0      r0     0.0008
   6933 C          -24.1921    16.3808     1.8041 C       6      r6    -0.0017
   6934 C          -24.0439    18.8652     1.5458 C       6      r6     0.0009
   6935 C          -23.4053    17.5086     1.3836 C       6      r6     0.0014
   6936 C          -23.3410    16.8240    -1.1920 C       5      r5    -0.0000
   6937 C          -22.7719    17.0687     0.1197 C       5      r5     0.0006
   6938 C          -22.2221    16.9782    -2.0322 C       5      r5     0.0001
   6939 C          -21.3276    16.8105     0.1241 C       5      r5     0.0007
   6940 C          -20.9686    20.3664    -2.2692 C       5      r5     0.0001
   6941 C          -20.9851    17.0731    -1.2675 C       5      r5     0.0013
   6942 C          -20.4882    16.7613     1.3320 C       5      r5    -0.0005
   6943 C          -19.8140    16.7438    -2.0718 C       5      r5     0.0004
   6944 C          -19.5843    17.8561     1.5295 C       7      r7    -0.0011
   6945 C          -18.8299    18.6404     0.5023 C       7      r7    -0.0006
   6946 C          -18.5164    20.0721     0.7931 C       7      r7    -0.0014
   6947 C          -18.4301    16.9677    -1.6294 C       6      r6     0.0003
   6948 C          -18.2076    18.0673    -0.7096 C       6      r6     0.0000
   6949 C          -17.2007    16.3465    -2.2232 C       7      r7     0.0016
   6950 C          -16.8615    18.6950    -0.7452 C       5      r5     0.0001
   6951 C          -16.4157    19.9213    -0.1069 C       5      r5    -0.0017
   6952 C          -15.9396    16.9624    -2.0477 C       7      r7     0.0012
   6953 C          -15.8033    18.1896    -1.4068 C       5      r5     0.0007
   6954 C          -15.0135    20.0517    -0.4182 C       5      r5    -0.0000
   6955 C          -14.4252    17.7135     2.1758 C       5      r5     0.0044
   6956 C          -14.6052    18.9720    -1.1770 C       5      r5    -0.0011
   6957 C          -14.1175    16.6497     1.1803 C       6      r6     0.0019
   6958 C          -13.4709    20.0180     1.5001 C       5      r5    -0.0008
   6959 C          -13.2871    18.5093    -1.6205 C       7      r7    -0.0016
   6960 C          -12.9060    16.3971     0.4627 C       6      r6    -0.0012
   6961 C          -12.0170    17.6426     0.4136 C       5      r5    -0.0007
   6962 C          -11.9843    18.2848    -0.9086 C       7      r7    -0.0042
   6963 C          -10.6870    17.4362     0.9422 C       5      r5    -0.0028
   6964 C          -10.6213    18.0022    -1.3848 C       7      r7     0.0017
   6965 C           -9.8028    17.9384    -0.1243 C       5      r5     0.0023
   6966 C           -8.6142    20.3252     0.4055 C       0      r0    -0.0004
   6967 C           -8.6327    18.8007     0.3041 C       0      r0     0.0012
   6968 C           -7.4087    18.1669     0.8453 C       7      r7    -0.0012
   6969 C           -6.9008    18.6591     2.1394 C       7      r7    -0.0038
   6970 C           -6.4022    17.5020     0.0270 C       7      r7     0.0001
   6971 C           -6.3493    16.0448    -0.1617 C       7      r7     0.0046
   6972 C           -5.6570    19.8191    -0.1105 C       7      r7    -0.0045
   6973 C           -5.4763    18.4383    -0.6322 C       7      r7    -0.0044
   6974 C           -5.2604    20.3164     1.2341 C       7      r7    -0.0036
   6975 C           -5.1146    18.2736    -1.9676 C       7      r7    -0.0001
   6976 C           -4.8892    15.8220    -2.1933 C       7      r7     0.0273
   6977 C           -3.8923    16.7981     1.8877 C       5      r5    -0.0012
   6978 C           -2.9813    17.7841     1.3219 C       7      r7     0.0031
   6979 C           -2.4213    18.7698     2.2861 C       7      r7     0.0048
   6980 C           -2.0110    17.0407     0.4854 C       7      r7    -0.0534
   6981 C           -1.7301    20.0649     2.0300 C       7      r7     0.0198
   6982 C           -1.5098    20.0798     0.5921 C       7      r7     0.0102
   6983 C           -0.7681    17.6569    -0.1023 C       7      r7     0.0247
   6984 C           -0.4268    19.0377     0.2311 C       7      r7     0.0031
   6985 C           -0.0644    16.1393    -2.0640 C       7      r7     0.0270
   6986 C            0.2098    17.0069    -0.8993 C       7      r7     0.0152
   6987 C            0.9354    19.5171     0.1974 C       7      r7     0.0482
   6988 C            1.6779    17.5222    -0.9971 C       7      r7    -0.0094
   6989 C            2.2297    18.7031     0.1213 C       7      r7     0.0036
   6990 C            2.4730    16.3179    -0.6191 C       5      r5     0.0124
   6991 C            2.8480    17.7964     1.1893 C       7      r7     0.0393
   6992 C            3.5043    19.5865    -0.1994 C       7      r7    -0.0047
   6993 C            3.4248    16.6579     0.4632 C       7      r7    -0.0073
   6994 C            4.4012    18.2638    -2.1830 C       7      r7    -0.0030
   6995 C            4.5852    19.1019    -0.9724 C       7      r7    -0.0030
   6996 C            4.8162    16.1233     0.6815 C       7      r7     0.0019
   6997 C            5.8506    19.8156    -0.7864 C       6      r6    -0.0024
   6998 C            5.9726    18.0216     2.0241 C       7      r7     0.0003
   6999 C            5.9865    16.9965     0.8921 C       7      r7    -0.0021
   7000 C            6.9276    19.1343    -1.4535 C       5      r5    -0.0010
   7001 C            7.1754    16.2216     0.5664 C       7      r7    -0.0007
   7002 C            8.1122    19.8440    -1.5849 C       5      r5     0.0003
   7003 C            8.5929    16.3919    -0.1147 C       0      r0     0.0014
   7004 C            9.1665    20.3893     2.0423 C       7      r7    -0.0012
   7005 C            9.7303    17.8279     1.6262 C       7      r7     0.0005
   7006 C            9.8779    19.2724     1.4917 C       7      r7     0.0006
   7007 C            9.8436    17.0977     0.4156 C       6      r6     0.0010
   7008 C           11.2268    19.6820     0.9039 C       5      r5     0.0006
   7009 C           11.1446    17.3818    -0.2922 C       6      r6     0.0001
   7010 C           11.8218    18.7555    -0.0523 C       6      r6    -0.0004
   7011 C           11.9465    16.4514    -0.9266 C       0      r0     0.0001
   7012 C           12.7971    15.7455    -1.6502 C       7      r7     0.0010
   7013 C           12.9125    19.3736    -0.7717 C       6      r6    -0.0030
   7014 C           13.5725    18.5851    -1.6728 C       0      r0    -0.0028
   7015 C           15.2637    20.1812     1.4627 C       5      r5    -0.0014
   7016 C           15.8655    18.8557     1.1206 C       6      r6     0.0010
   7017 C           16.2089    16.3527    -1.8467 C       7      r7     0.0004
   7018 C           16.3574    18.5467    -0.2462 C       6      r6    -0.0017
   7019 C           16.6920    17.1816    -0.6280 C       6      r6     0.0002
   7020 C           17.0265    19.7810    -0.8348 C       7      r7    -0.0041
   7021 C           17.0392    16.8292     1.9752 C       6      r6     0.0003
   7022 C           17.5463    16.6722     0.5199 C       6      r6     0.0019
   7023 C           18.3572    19.9050    -1.4110 C       7      r7    -0.0033
   7024 C           18.7829    16.2002     0.1999 C       0      r0     0.0013
   7025 C           19.5855    19.9035     0.8311 C       7      r7     0.0006
   7026 C           19.5244    19.4391    -0.5519 C       7      r7    -0.0003
   7027 C           20.3359    19.4663     2.0496 C       7      r7    -0.0004
   7028 C           20.6171    18.8648    -1.1530 C       7      r7    -0.0008
   7029 C           21.3021    18.4563     2.1032 C       7      r7    -0.0008
   7030 C           21.9196    18.4944    -0.4676 C       7      r7     0.0008
   7031 C           22.0688    18.0825     0.8840 C       7      r7     0.0009
   7032 C           23.2920    18.3627    -1.0593 C       7      r7     0.0010
   7033 C           23.4437    17.8368     1.3107 C       5      r5    -0.0004
   7034 C           24.2207    18.3125     0.1101 C       5      r5     0.0016
   7035 C           25.2237    21.4074    -1.2843 C       7      r7    -0.0002
   7036 C          -25.1960    22.0998     1.0580 C       5      r5    -0.0001
   7037 C          -24.5218    21.7587    -0.1390 C       7      r7     0.0002
   7038 C          -24.1733    22.2037     1.9717 C       7      r7     0.0015
   7039 C          -23.1792    21.7605     0.0944 C       7      r7     0.0002
   7040 C          -22.8399    22.1307     1.4211 C       7      r7    -0.0002
   7041 C          -22.6347    24.5804    -1.7579 C       6      r6     0.0017
   7042 C          -22.2484    20.7478    -1.9407 C       7      r7     0.0006
   7043 C          -22.1100    21.3609    -0.7087 C       7      r7     0.0005
   7044 C          -21.6321    21.7531     2.0446 C       7      r7     0.0013
   7045 C          -21.3714    24.7142    -1.1581 C       5      r5     0.0010
   7046 C          -20.7319    21.3410    -0.2697 C       5      r5     0.0001
   7047 C          -20.5060    21.4501     1.1223 C       6      r6     0.0006
   7048 C          -20.1527    24.0921    -1.6766 C       5      r5     0.0017
   7049 C          -20.0039    20.8241    -1.4261 C       5      r5     0.0009
   7050 C          -19.7306   -24.8439     0.3715 C       5      r5     0.0003
   7051 C          -19.4126    20.7804     1.7308 C       7      r7    -0.0012
   7052 C          -19.1064    24.3196    -0.6801 C       5      r5     0.0006
   7053 C          -17.9031    23.5317    -0.3502 C       6      r6     0.0026
   7054 C          -17.7336    21.8644    -2.0796 C       7      r7     0.0009
   7055 C          -17.6384    22.1123    -0.6208 C       0      r0     0.0006
   7056 C          -17.4494    20.8994     0.1820 C       6      r6    -0.0015
   7057 C          -16.9484    24.2891     0.5282 C       6      r6    -0.0008
   7058 C          -15.5436    24.2905     0.5142 C       5      r5    -0.0019
   7059 C          -14.7683    22.6486    -1.3475 C       6      r6     0.0011
   7060 C          -14.5549    23.4272    -0.0832 C       5      r5     0.0001
   7061 C          -14.0212    20.6551     0.3110 C       5      r5    -0.0015
   7062 C          -13.5160    22.0071    -1.6737 C       6      r6     0.0010
   7063 C          -13.5667    24.4157     1.8201 C       7      r7    -0.0023
   7064 C          -13.2521    23.8147     0.5478 C       7      r7    -0.0002
   7065 C          -13.0435    21.3916    -0.4008 C       5      r5     0.0004
   7066 C          -12.3609    24.4338    -0.4864 C       7      r7    -0.0011
   7067 C          -12.2477    20.6626     1.6112 C       5      r5     0.0014
   7068 C          -11.8482    21.3307     0.4178 C       5      r5    -0.0005
   7069 C          -11.2848    23.6457    -1.1183 C       5      r5     0.0011
   7070 C          -10.5294    21.9447     0.4601 C       6      r6     0.0008
   7071 C          -10.2976    23.2310    -0.0688 C       0      r0     0.0005
   7072 C           -9.5961    21.0657     1.2352 C       6      r6    -0.0019
   7073 C           -9.2855    24.1898     0.3474 C       5      r5    -0.0017
   7074 C           -8.6337    24.6207    -0.9265 C       7      r7    -0.0004
   7075 C           -8.3914    23.5015    -1.8445 C       7      r7     0.0017
   7076 C           -8.3236    22.0373    -1.5698 C       5      r5    -0.0019
   7077 C           -7.8793    21.2707    -0.3837 C       5      r5     0.0020
   7078 C           -6.8592    20.4335    -2.2945 C       7      r7     0.0037
   7079 C           -6.6542    20.5982    -0.8200 C       7      r7    -0.0038
   7080 C           -5.2312    23.9922     1.4805 C       5      r5     0.0051
   7081 C           -5.0446    24.7816    -0.7866 C       5      r5    -0.0006
   7082 C           -4.7855    23.6567     0.1485 C       5      r5     0.0102
   7083 C           -4.4830    21.5177     1.3036 C       7      r7    -0.0054
   7084 C           -4.1959    22.3226     0.1065 C       6      r6     0.0062
   7085 C           -2.8826    22.1421    -0.4753 C       6      r6     0.0179
   7086 C           -2.5538    23.1762    -1.4335 C       7      r7     0.0012
   7087 O           -1.8231    24.0378     2.1140 O       6      r6    -0.4970
   7088 C           -1.7254    21.2410    -0.2885 C       6      r6     0.0096
   7089 C           -1.2521    24.0146    -1.3375 C       7      r7     0.0257
   7090 C           -0.3881    21.6134    -0.7641 C       5      r5     0.0069
   7091 C           -0.1159    23.0042    -0.9900 C       5      r5     0.0062
   7092 C            0.8456    20.8998    -0.2348 C       7      r7     0.0025
   7093 C            1.1794    23.2544    -0.3677 C       5      r5     0.0306
   7094 C            1.8318    21.9167     0.0297 C       7      r7     0.0272
   7095 C            1.8223    24.5014    -0.2026 C       0      r0     0.0348
   7096 C            2.6521    22.5607     2.3040 C       7      r7     0.2307
   7097 C            2.7464    21.7184     1.1488 C       7      r7    -0.0163
   7098 C            3.7674    20.6496     0.7563 C       7      r7     0.0099
   7099 C            5.0635    24.5288     0.1020 C       5      r5    -0.0025
   7100 C            5.1080    20.9405     1.1570 C       7      r7    -0.0058
   7101 C            5.2868    24.6595    -2.5081 C       7      r7    -0.0036
   7102 C            6.1732    20.8839     0.1190 C       6      r6    -0.0014
   7103 C            6.4220    24.1107     0.6237 C       5      r5    -0.0027
   7104 C            6.8969   -24.9399     1.6910 C       5      r5    -0.0015
   7105 C            7.3508    21.6994    -0.0706 C       7      r7    -0.0024
   7106 C            7.3878    23.0316     0.5697 C       7      r7    -0.0027
   7107 C            8.2934    24.8497     1.9931 C       5      r5    -0.0013
   7108 C            8.3334    21.1148    -0.9590 C       7      r7    -0.0010
   7109 C            8.5354    23.5828     1.2645 C       7      r7    -0.0010
   7110 C            9.6513    21.5443    -1.1961 C       7      r7     0.0030
   7111 C            9.6696    24.0340    -1.3049 C       7      r7     0.0138
   7112 C            9.8820    23.0488     0.9318 C       7      r7     0.0012
   7113 C            9.9040    22.8378    -0.5494 C       7      r7     0.0033
   7114 C           10.1622    21.6543     1.8664 C       5      r5     0.0009
   7115 C           10.5544    20.8610    -2.0996 C       6      r6     0.0006
   7116 C           11.2448    24.1008     1.1030 C       6      r6    -0.0003
   7117 C           11.4008    21.0837     1.0835 C       5      r5    -0.0004
   7118 C           11.9376    21.1138    -2.0694 C       5      r5     0.0101
   7119 C           12.2885    23.2818     0.2556 C       7      r7     0.0007
   7120 C           12.3290    21.8510     0.3087 C       7      r7    -0.0006
   7121 C           12.9441    21.0670    -0.9473 C       7      r7    -0.0013
   7122 C           13.1677    24.1314    -0.4699 C       7      r7     0.0187
   7123 C           14.1439    21.6151    -1.6466 C       7      r7     0.0019
   7124 C           14.6629    23.8596    -0.6378 C       7      r7     0.0012
   7125 C           15.1159    22.6609    -1.3110 C       7      r7    -0.0030
   7126 C           15.3917    24.7538     0.2094 C       6      r6    -0.0041
   7127 C           15.6329    22.5846     1.6566 C       7      r7    -0.0022
   7128 C           15.7075    21.3643     0.7802 C       5      r5    -0.0021
   7129 C           15.7597    24.1104     1.4076 C       7      r7    -0.0012
   7130 C           16.4958    22.6188    -1.8579 C       7      r7     0.0090
   7131 C           16.7918    21.0226    -0.1781 C       7      r7    -0.0031
   7132 C           17.3896    23.5275    -1.1006 C       6      r6     0.0135
   7133 C           17.9960    21.7110     0.3717 C       7      r7    -0.0029
   7134 C           18.4834    22.7572    -0.5074 C       6      r6    -0.0013
   7135 C           18.8770    20.9803     1.2897 C       7      r7     0.0012
   7136 C           19.8206    24.2535    -1.8122 C       6      r6     0.0479
   7137 C           19.8318    23.0456    -1.0654 C       6      r6    -0.0088
   7138 C           20.9598    22.1080    -0.9207 C       6      r6     0.0007
   7139 C           21.4971    21.5439    -2.1621 C       6      r6    -0.0004
   7140 C           21.6223    22.3738     1.7605 C       5      r5     0.0002
   7141 C           21.7563    22.1276     0.3021 C       5      r5    -0.0018
   7142 C           22.9562    21.4795    -2.2261 C       6      r6    -0.0015
   7143 C           23.1912    21.9433     0.1269 C       5      r5    -0.0012
   7144 C           23.8582    22.0840     1.3595 C       5      r5     0.0003
   7145 C           23.7636    21.5909    -1.0911 C       6      r6    -0.0009
   7146 C          -24.7851   -24.7351     6.8058 C       5      r5    -0.0084
   7147 C          -24.5563   -24.7138     4.2105 C       7      r7    -0.0013
   7148 C          -24.4980   -24.1583     5.5466 C       7      r7     0.0002
   7149 C          -24.4967   -23.6853     3.1401 C       7      r7     0.0007
   7150 C          -23.3932   -23.2431     5.7968 C       7      r7    -0.0002
   7151 C          -23.4040   -22.9441     2.7386 C       7      r7     0.0016
   7152 C          -22.9587   -21.9549     3.6029 C       7      r7    -0.0009
   7153 C          -22.7795   -22.3158     4.9569 C       7      r7    -0.0001
   7154 C          -22.7253   -23.5277     6.9620 C       7      r7     0.0003
   7155 C          -22.2007    24.8324     4.0581 C       7      r7     0.0004
   7156 C          -21.9144   -21.1226     3.1241 C       5      r5    -0.0005
   7157 C          -21.5725   -21.6436     5.2965 C       5      r5    -0.0017
   7158 C          -21.5174   -24.1754     3.2478 C       7      r7     0.0008
   7159 C          -21.0461   -20.8761     4.2109 C       5      r5    -0.0017
   7160 C          -20.8193   -21.9438     6.5377 C       6      r6    -0.0010
   7161 C          -20.1417   -23.8919     3.5878 C       6      r6     0.0006
   7162 C          -19.6224   -21.1107     6.7466 C       7      r7    -0.0012
   7163 C          -19.4340   -24.3967     4.7335 C       7      r7    -0.0000
   7164 C          -19.2683   -23.3463     2.4668 C       0      r0    -0.0021
   7165 C          -18.0355   -23.9773     4.9793 C       7      r7     0.0000
   7166 C          -17.6962   -23.5114     6.3501 C       7      r7     0.0001
   7167 C          -17.1917   -23.4751     3.8852 C       6      r6    -0.0015
   7168 C          -16.8631   -22.2522     6.4645 C       7      r7     0.0006
   7169 C          -16.8200   -21.4335     5.2884 C       7      r7     0.0031
   7170 C          -16.6903   -24.2514     2.7352 C       6      r6    -0.0027
   7171 C          -16.5857   -22.1738     4.0335 C       7      r7    -0.0032
   7172 C          -15.5940   -21.6657     3.1173 C       7      r7    -0.0036
   7173 C          -15.3466   -23.9268     2.4556 C       5      r5    -0.0029
   7174 C          -14.8625   -22.6154     2.4416 C       5      r5     0.0014
   7175 C          -12.4129   -21.1833     6.3430 C       7      r7    -0.0049
   7176 C          -11.8322   -20.9681     3.8221 C       6      r6    -0.0706
   7177 C          -11.4957   -22.3539     6.2371 C       7      r7     0.0027
   7178 C          -10.9767   -22.1647     3.7809 C       6      r6     0.0120
   7179 C          -10.5969   -22.7837     2.5000 C       6      r6    -0.0072
   7180 C          -10.5716   -22.5777     5.1471 C       6      r6    -0.0008
   7181 C           -9.3732   -23.2446     5.6122 C       7      r7     0.0112
   7182 C           -8.2554   -23.6730     4.6394 C       7      r7    -0.0014
   7183 C           -7.0562   -22.8026     4.3357 C       5      r5     0.0378
   7184 C           -6.8005   -22.6627     2.9022 C       7      r7    -0.0023
   7185 C           -6.1137   -23.9484     2.5317 C       7      r7     0.0012
   7186 C           -5.7634   -23.4130     4.7613 C       5      r5     0.0007
   7187 C           -5.3070   -24.3583     3.7123 C       5      r5     0.0013
   7188 C           -5.0208   -23.3594     5.9992 C       7      r7     0.0102
   7189 C           -3.9049   -24.3011     6.0180 C       7      r7    -0.0024
   7190 C           -2.5238   -20.8972     3.4668 C       7      r7     0.0029
   7191 C           -1.4656   -24.0160     3.8581 C       5      r5    -0.0606
   7192 C           -1.2745   -21.1370     5.7331 C       6      r6    -0.0017
   7193 C           -1.3015   -21.5688     3.0050 C       0      r0    -0.0052
   7194 C           -1.3114   -23.0260     2.7860 C       6      r6     0.0394
   7195 C           -1.1119   -23.6966     5.2783 C       5      r5     0.0086
   7196 C           -0.4625   -22.3912     5.4399 C       0      r0    -0.0038
   7197 C            0.0003   -20.8847     3.1031 C       0      r0     0.0007
   7198 C            0.9140   -22.4092     4.8671 C       6      r6    -0.0022
   7199 C            1.1427   -21.6915     3.6258 C       6      r6     0.0020
   7200 C            1.9105   -23.5203     4.9443 C       7      r7     0.0026
   7201 C            2.2975   -24.1654     3.6801 C       7      r7    -0.0365
   7202 C            2.3312   -21.9981     2.7871 C       6      r6    -0.0048
   7203 C            2.6536   -23.3980     2.4942 C       6      r6     0.0250
   7204 C            2.8159   -23.7197     6.0877 C       7      r7    -0.0041
   7205 C            3.1085   -20.8339     2.4828 C       0      r0    -0.0031
   7206 C            4.0704   -24.5331     5.9404 C       7      r7    -0.0059
   7207 C            4.5362   -21.3632     6.2577 C       0      r0    -0.0076
   7208 C            5.2473   -24.0858     6.6400 C       6      r6     0.0053
   7209 C            5.3787   -21.5424     2.7866 C       6      r6    -0.0005
   7210 C            5.7107   -24.1052     2.1536 C       5      r5    -0.0015
   7211 C            5.6337   -22.8613     2.6199 C       0      r0    -0.0019
   7212 C            5.7360   -21.4742     5.4657 C       6      r6     0.0004
   7213 C            5.8387   -20.8893     4.0423 C       6      r6    -0.0027
   7214 C            6.6309   -24.4462     6.2598 C       7      r7    -0.0023
   7215 C            7.0418   -21.3363     6.1445 C       7      r7    -0.0004
   7216 C            9.0584   -23.9616     2.6160 C       6      r6     0.0000
   7217 C            9.3811   -21.3739     2.7811 C       7      r7    -0.0002
   7218 C            9.7220   -24.1257     3.8681 C       6      r6    -0.0004
   7219 C            9.8620   -20.7400     6.4692 C       5      r5    -0.0020
   7220 C            9.9919   -21.7088     4.0306 C       6      r6    -0.0004
   7221 C           10.1322   -20.6511     5.0416 C       5      r5    -0.0010
   7222 C           10.4482   -23.0672     4.4503 C       6      r6     0.0009
   7223 C           11.8220   -23.2663     5.1104 C       5      r5    -0.0002
   7224 C           12.4271   -22.6051     6.2783 C       5      r5     0.0000
   7225 C           12.4797   -24.2103     2.8302 C       6      r6    -0.0000
   7226 C           12.8302   -23.8387     4.2729 C       5      r5     0.0002
   7227 C           13.2998   -20.9426     3.0107 C       7      r7     0.0004
   7228 C           13.8717   -22.5839     6.0650 C       5      r5    -0.0004
   7229 C           14.1102   -21.1987     5.4691 C       5      r5     0.0002
   7230 C           14.2296   -23.5634     4.7427 C       7      r7    -0.0004
   7231 C           14.5611   -21.3734     3.8449 C       7      r7     0.0005
   7232 C           14.9136   -22.8655     3.6355 C       7      r7    -0.0022
   7233 C           15.1179   -24.8718     5.4806 C       7      r7     0.0014
   7234 C           15.4436   -20.7582     6.0352 C       5      r5    -0.0010
   7235 C           15.4961   -23.4608     2.4468 C       7      r7    -0.0023
   7236 C           15.7424   -20.4776     3.3343 C       7      r7     0.0055
   7237 C           16.2440   -24.3137     6.2795 C       7      r7     0.0007
   7238 C           16.1184   -24.8421     2.4244 C       7      r7    -0.0024
   7239 C           17.4516   -23.9940     5.5698 C       7      r7     0.0008
   7240 C           17.9068   -24.4534     4.2526 C       6      r6    -0.0001
   7241 C           18.0319   -22.6514     5.9799 C       7      r7    -0.0005
   7242 C           19.2112   -22.0993     5.5373 C       5      r5    -0.0000
   7243 C           19.2849   -24.0435     3.8698 C       6      r6    -0.0005
   7244 C           19.4904   -20.7250     6.2387 C       5      r5    -0.0007
   7245 C           19.9408   -22.8968     4.5640 C       6      r6    -0.0008
   7246 C           20.2277   -24.9302     3.1172 C       0      r0     0.0015
   7247 C           21.1341   -24.9430     6.1209 C       6      r6    -0.0005
   7248 C           21.3117   -22.4678     4.2049 C       6      r6     0.0007
   7249 C           21.4677   -21.9036     2.9263 C       5      r5    -0.0020
   7250 C           21.4610   -24.4476     2.4853 C       5      r5     0.0005
   7251 C           22.1072   -22.7580     6.6189 C       7      r7    -0.0014
   7252 C           22.3826   -22.3513     5.2203 C       7      r7    -0.0001
   7253 C           22.7109   -24.7529     3.2309 C       5      r5     0.0010
   7254 C           22.7051   -21.4530     2.4544 C       7      r7    -0.0003
   7255 C           23.5656   -21.6757     4.7895 C       7      r7     0.0002
   7256 C           23.7934   -24.4206     2.3174 C       5      r5     0.0001
   7257 C           23.7772   -21.3506     3.3807 C       7      r7     0.0011
   7258 C           24.7115   -21.3415     5.6579 C       7      r7    -0.0007
   7259 C           24.7916   -20.5781     2.8389 C       7      r7     0.0020
   7260 C          -24.8781   -19.9875     3.8550 C       5      r5     0.0010
   7261 C          -24.7909   -20.4618     5.1776 C       6      r6     0.0011
   7262 C          -24.4096   -16.1101     5.6361 C       6      r6     0.0002
   7263 C          -23.9218   -19.1077     3.3039 C       5      r5    -0.0004
   7264 C          -23.6515   -19.9075     5.9452 C       6      r6    -0.0004
   7265 C          -22.9298   -18.4830     4.0199 C       7      r7    -0.0009
   7266 C          -22.7976   -18.9175     5.3989 C       7      r7    -0.0016
   7267 C          -22.1038   -17.7595     3.1336 C       7      r7     0.0003
   7268 C          -21.7585   -18.4437     6.2782 C       7      r7    -0.0005
   7269 C          -21.1734   -17.1877     6.1096 C       7      r7    -0.0020
   7270 C          -20.9895   -17.1424     3.6305 C       7      r7    -0.0072
   7271 C          -20.8200   -16.6275     4.8834 C       7      r7     0.0024
   7272 C          -19.9395   -17.1780     2.7015 C       7      r7     0.0372
   7273 C          -19.8885   -20.0360     4.5236 C       5      r5    -0.0005
   7274 C          -19.3699   -18.4656     2.3244 C       6      r6    -0.0031
   7275 C          -19.1149   -20.2845     5.6625 C       7      r7    -0.0022
   7276 C          -19.0594   -19.3071     3.4887 C       5      r5    -0.0030
   7277 C          -17.7059   -19.6023     3.7883 C       7      r7     0.0121
   7278 C          -17.5361   -20.0565     5.3024 C       7      r7     0.0001
   7279 C          -17.0017   -18.8877     6.1453 C       7      r7     0.0296
   7280 C          -16.8482   -17.4246     5.8515 C       5      r5    -0.0336
   7281 C          -16.7197   -19.5582     2.7806 C       7      r7     0.0526
   7282 C          -16.3732   -16.6686     4.7244 C       5      r5     0.2244
   7283 O          -15.7159   -17.3598     3.5255 O       5      r5    -0.4795
   7284 C          -15.6050   -20.3786     2.6855 C       7      r7     0.0116
   7285 C          -15.0094   -16.0711     3.0929 C       5      r5     0.2352
   7286 C          -12.6599   -19.0090     5.1019 C       5      r5    -0.0483
   7287 C          -12.6322   -16.6633     5.7751 C       5      r5     0.0022
   7288 C          -12.5676   -18.1038     4.0200 C       5      r5     0.2754
   7289 C          -12.5406   -16.6631     4.3181 C       5      r5    -0.0377
   7290 C          -12.4735   -18.0554     6.2378 C       5      r5    -0.0040
   7291 O          -12.3050   -18.7081     2.6789 O       6      r6    -0.5238
   7292 C          -12.4301   -20.4468     5.0760 C       6      r6     0.0394
   7293 C          -11.8264   -20.1135     2.7176 C       6      r6     0.2637
   7294 C          -11.0985   -18.2806     6.6726 C       0      r0     0.0134
   7295 C          -10.1240   -19.3383     6.2938 C       5      r5    -0.0351
   7296 C           -9.0610   -19.4895     5.3305 C       5      r5     0.2050
   7297 C           -9.0495   -19.2028     4.1164 C       0      r0    -0.0166
   7298 C           -8.3741   -19.1009     2.9078 C       0      r0     0.0141
   7299 O           -7.6848   -20.0731     5.8027 O       5      r5    -0.4806
   7300 C           -7.3276   -16.1241     4.0219 C       6      r6     0.1887
   7301 C           -6.8145   -19.1952     3.0504 C       5      r5     0.0219
   7302 C           -6.5885   -17.2493     4.5528 C       6      r6    -0.0075
   7303 C           -6.0318   -17.4114     5.9106 C       5      r5     0.0543
   7304 C           -6.0209   -18.1724     3.6126 C       5      r5    -0.0006
   7305 C           -5.9284   -20.2513     2.6732 C       5      r5     0.0070
   7306 C           -4.9847   -18.3947     6.0042 C       5      r5     0.0149
   7307 C           -4.5828   -19.6844     2.8516 C       7      r7    -0.0011
   7308 C           -4.4464   -18.3066     3.4418 C       7      r7     0.0028
   7309 C           -3.8369   -18.1378     5.0179 C       7      r7    -0.0002
   7310 C           -3.9437   -17.1648     2.5381 C       6      r6    -0.0018
   7311 C           -3.5197   -16.6594     5.2212 C       7      r7    -0.0022
   7312 C           -3.4963   -20.5728     2.4098 C       7      r7    -0.0027
   7313 C           -2.7259   -16.2535     6.3599 C       7      r7     0.0231
   7314 C           -2.6371   -19.0999     5.3143 C       7      r7     0.0034
   7315 C           -2.1783   -20.3951     4.8256 C       7      r7    -0.0002
   7316 C           -1.9192   -18.6121     6.4733 C       5      r5     0.0009
   7317 C           -0.0017   -19.5302     2.6372 C       5      r5    -0.0010
   7318 C            0.5628   -17.2792     2.1465 C       5      r5     0.0073
   7319 C            1.0386   -18.5356     2.7625 C       5      r5     0.0029
   7320 C            1.4701   -16.1580     6.5200 C       7      r7     0.2504
   7321 C            2.2642   -18.3468     3.5391 C       6      r6    -0.0063
   7322 C            2.3225   -17.0217     5.8361 C       7      r7    -0.0331
   7323 C            2.0319   -16.0104     3.5347 C       7      r7     0.0351
   7324 C            2.3348   -17.1530     4.3703 C       7      r7     0.0265
   7325 C            2.9926   -19.6601     3.5939 C       0      r0    -0.0027
   7326 C            3.4101   -19.8338     4.8190 C       0      r0    -0.0032
   7327 C            3.8394   -20.0457     6.0664 C       0      r0    -0.0040
   7328 C            5.2155   -16.3129     4.9491 C       5      r5     0.2400
   7329 C            5.5230   -18.3607     6.7708 C       6      r6     0.0222
   7330 C            5.4324   -16.2407     3.5529 C       7      r7    -0.0471
   7331 C            5.5671   -17.3296     2.4845 C       7      r7     0.0099
   7332 C            5.6562   -18.7487     2.6794 C       6      r6    -0.0056
   7333 C            5.8425   -17.4749     5.5989 C       6      r6    -0.0356
   7334 C            6.2565   -19.5015     3.8481 C       6      r6    -0.0015
   7335 C            7.1202   -17.7054     4.9675 C       6      r6     0.0020
   7336 C            7.2533   -19.1369     4.8083 C       6      r6     0.0003
   7337 C            7.4403   -19.8772     6.1333 C       7      r7     0.0012
   7338 C            7.9980   -16.5082     4.7476 C       0      r0     0.0031
   7339 C            8.8244   -16.1931     5.9502 C       0      r0     0.0058
   7340 C            8.7333   -16.1829     3.5315 C       6      r6    -0.0003
   7341 C            8.9912   -19.5361     6.8441 C       7      r7     0.0009
   7342 C            9.2915   -17.3419     2.7937 C       6      r6    -0.0006
   7343 C            9.2627   -19.9678     2.3958 C       7      r7    -0.0003
   7344 C            9.5545   -18.5115     5.8996 C       5      r5    -0.0013
   7345 C            9.4579   -18.8208     3.2584 C       6      r6     0.0003
   7346 C            9.7869   -17.1911     6.4418 C       0      r0    -0.0013
   7347 C            9.8290   -19.2199     4.6355 C       5      r5    -0.0021
   7348 C           12.3628   -16.9283     6.3913 C       5      r5     0.0002
   7349 C           12.5303   -17.6289     5.0526 C       5      r5    -0.0040
   7350 C           12.8173   -19.0420     4.7899 C       6      r6     0.0023
   7351 C           12.9325   -18.4508     2.4030 C       7      r7     0.0011
   7352 C           13.0247   -19.5289     3.3990 C       7      r7     0.0033
   7353 C           13.2928   -16.7754     4.1817 C       5      r5     0.0077
   7354 C           13.2170   -17.0551     2.7625 C       6      r6     0.0144
   7355 C           13.2215   -19.9763     5.8433 C       6      r6     0.0004
   7356 C           15.7011   -18.0863     6.1928 C       5      r5     0.0022
   7357 C           15.7616   -19.4490     5.5469 C       6      r6     0.0007
   7358 C           16.3738   -19.5452     4.2178 C       7      r7     0.0013
   7359 C           16.7670   -17.1355     5.8589 C       7      r7     0.0063
   7360 C           17.4874   -18.5604     3.9746 C       7      r7     0.0237
   7361 C           17.7251   -17.3697     4.7503 C       7      r7     0.0179
   7362 C           18.4384   -19.0064     2.9997 C       7      r7     0.0006
   7363 C           18.7656   -16.3324     4.5300 C       7      r7     0.0298
   7364 C           19.4104   -15.8376     5.6968 C       7      r7    -0.0081
   7365 C           19.8297   -18.5708     2.8919 C       5      r5     0.0031
   7366 C           20.3687   -19.7946     5.8253 C       0      r0    -0.0010
   7367 C           20.9385   -18.4810     3.8336 C       5      r5    -0.0019
   7368 C           21.2787   -18.9436     5.2340 C       5      r5    -0.0006
   7369 C           22.0249   -17.6479     3.4179 C       7      r7    -0.0009
   7370 C           22.7547   -18.6182     5.5754 C       5      r5    -0.0005
   7371 C           23.1153   -17.8205     4.4271 C       7      r7     0.0001
   7372 C           23.5294   -18.7466     6.7540 C       6      r6    -0.0010
   7373 C           24.3049   -17.0614     4.3274 C       7      r7     0.0002
   7374 C           24.7195   -18.0014     6.7021 C       6      r6     0.0011
   7375 C           25.1120   -17.2274     5.4882 C       6      r6     0.0016
   7376 C          -24.8172   -12.8388     2.5724 C       7      r7     0.0010
   7377 C          -24.3527   -11.9177     6.2804 C       7      r7     0.0010
   7378 C          -24.2109   -15.7397     3.1576 C       6      r6    -0.0001
   7379 C          -24.2584   -13.3959     6.1555 C       6      r6     0.0010
   7380 C          -24.0294   -13.8332     4.7849 C       6      r6    -0.0003
   7381 C          -23.9685   -15.2608     4.5218 C       6      r6    -0.0014
   7382 C          -23.7354   -13.1096     3.4884 C       7      r7    -0.0005
   7383 C          -22.3779   -12.4505     3.2690 C       7      r7    -0.0018
   7384 C          -21.3060   -12.3555     5.4150 C       7      r7    -0.0017
   7385 C          -21.1356   -13.0844     4.1956 C       7      r7    -0.0019
   7386 C          -20.8927   -14.4808     3.9750 C       7      r7    -0.0003
   7387 C          -20.7137   -14.8364     2.6119 C       7      r7     0.0058
   7388 C          -20.4723   -15.3154     4.9965 C       7      r7     0.0006
   7389 C          -20.3754   -12.4522     6.4542 C       7      r7    -0.0012
   7390 C          -20.0653   -14.7767     6.2883 C       7      r7    -0.0022
   7391 C          -19.6666   -12.4654     3.7798 C       7      r7    -0.0003
   7392 C          -19.3615   -13.5014     6.3424 C       7      r7    -0.0009
   7393 C          -18.4388   -13.0685     4.1452 C       7      r7     0.0031
   7394 C          -18.1733   -13.6296     5.5253 C       7      r7    -0.0012
   7395 C          -17.2176   -12.7263     3.3135 C       7      r7     0.0074
   7396 C          -17.0371   -14.4718     5.8897 C       6      r6     0.0089
   7397 C          -16.2542   -15.2720     4.9418 C       5      r5    -0.0389
   7398 C          -16.3166   -12.1608     4.2750 C       7      r7    -0.0009
   7399 C          -15.2733   -14.9313     3.8205 C       5      r5    -0.0435
   7400 C          -14.9104   -12.4679     4.2480 C       6      r6    -0.0029
   7401 C          -14.5556   -13.6765     3.5418 C       6      r6     0.0060
   7402 C          -14.0047   -11.3041     4.4537 C       6      r6    -0.0021
   7403 C          -13.6173   -13.5539     2.3628 C       7      r7    -0.0092
   7404 C          -12.8609   -15.0610     2.2036 C       7      r7     0.0025
   7405 C          -12.4594   -12.3583     2.6691 C       7      r7    -0.0035
   7406 C          -12.2132   -15.4339     3.5586 C       6      r6     0.0306
   7407 C          -12.2332   -15.5143     6.6288 C       6      r6    -0.0001
   7408 C          -11.8068   -12.8915     3.9555 C       7      r7    -0.0015
   7409 C          -11.7650   -14.3485     4.4281 C       7      r7    -0.0000
   7410 C          -11.3574   -14.5969     5.8445 C       7      r7    -0.0058
   7411 C          -11.0503   -11.8131     4.5809 C       7      r7     0.0054
   7412 C          -10.0669   -14.2088     6.2255 C       7      r7     0.0312
   7413 C           -9.6362   -12.1962     4.4501 C       7      r7    -0.0152
   7414 C           -9.3261   -12.3198     3.0299 C       7      r7    -0.0324
   7415 C           -9.2691   -13.2457     5.3451 C       7      r7    -0.0386
   7416 C           -8.5630   -13.5221     3.2464 C       5      r5     0.2015
   7417 O           -8.2976   -14.5380     2.2012 O       6      r6    -0.4694
   7418 C           -8.2911   -13.7924     4.5875 C       5      r5     0.1919
   7419 C           -7.8512   -15.9762     2.7392 C       6      r6     0.1614
   7420 O           -7.5094   -15.0233     5.0520 O       6      r6    -0.4767
   7421 C           -5.0094   -12.3674     6.1647 C       5      r5     0.0031
   7422 C           -5.1092   -13.4695     2.5067 C       6      r6     0.0101
   7423 C           -4.6440   -13.8100     6.0857 C       7      r7     0.0253
   7424 C           -4.1802   -14.1761     4.7588 C       7      r7     0.0133
   7425 C           -4.4130   -15.8728     2.9924 C       6      r6    -0.0045
   7426 C           -4.1832   -13.1856     3.7222 C       6      r6     0.0014
   7427 C           -4.2346   -11.3543     5.3623 C       5      r5    -0.0022
   7428 C           -4.0377   -15.6208     4.3547 C       7      r7     0.0152
   7429 C           -3.7355   -11.9001     4.0916 C       6      r6     0.0014
   7430 C           -0.6459   -11.9632     6.3769 C       0      r0     0.0122
   7431 C           -0.0058   -11.9583     5.2042 C       6      r6     0.0175
   7432 O            0.4624   -15.2525     5.8456 O       7      r7    -0.4975
   7433 C            1.0876   -11.6558     3.0682 C       5      r5     0.0015
   7434 C            1.2741   -14.2267     5.0828 C       7      r7     0.2532
   7435 C            1.2296   -12.8255     5.3466 C       6      r6    -0.0384
   7436 C            2.0896   -14.5933     4.0054 C       7      r7    -0.0363
   7437 C            2.5753   -12.1836     3.5902 C       7      r7    -0.0065
   7438 C            2.5235   -12.2375     5.1026 C       7      r7     0.0122
   7439 C            2.7612   -13.6700     3.1338 C       7      r7     0.0106
   7440 C            3.5492   -11.8585     6.1775 C       7      r7     0.0031
   7441 O            4.8211   -15.1036     5.6937 O       5      r5    -0.5028
   7442 C            5.2695   -11.9115     5.8692 C       5      r5     0.0219
   7443 C            5.3200   -14.2016     4.5833 C       5      r5     0.2289
   7444 C            5.5797   -12.8497     4.7864 C       5      r5    -0.0420
   7445 C            5.6202   -14.8020     3.3320 C       7      r7    -0.0421
   7446 C            6.1794   -13.9317     2.2580 C       7      r7     0.0045
   7447 C            6.2479   -12.0543     3.8435 C       5      r5     0.0034
   7448 C            6.7004   -12.6028     2.5852 C       6      r6    -0.0059
   7449 C            8.0607   -13.6190     6.0396 C       6      r6     0.0092
   7450 C            8.9198   -14.8457     6.3665 C       6      r6     0.0044
   7451 C            8.8363   -12.8681     5.0804 C       6      r6    -0.0018
   7452 C            9.0515   -14.7660     3.1419 C       6      r6    -0.0005
   7453 C            9.3077   -11.5326     5.5817 C       7      r7     0.0004
   7454 C            9.5336   -13.6894     4.0364 C       6      r6    -0.0015
   7455 C           10.7415   -13.0261     3.5336 C       7      r7    -0.0040
   7456 C           10.9504   -11.5874     3.8328 C       7      r7    -0.0021
   7457 C           11.5658   -13.7616     2.5182 C       7      r7    -0.0033
   7458 C           12.2187   -14.0760     6.3898 C       6      r6    -0.0027
   7459 C           12.7381   -15.4156     6.0400 C       5      r5    -0.0027
   7460 C           12.7798   -14.6062     2.7156 C       6      r6     0.0024
   7461 C           13.2599   -13.0473     6.0895 C       6      r6    -0.0024
   7462 C           13.4722   -15.4217     4.8142 C       5      r5     0.0043
   7463 C           13.6424   -14.2793     3.8997 C       6      r6     0.0139
   7464 C           13.8979   -13.1168     4.7845 C       6      r6     0.0008
   7465 C           15.1770   -12.3878     4.7788 C       5      r5     0.0039
   7466 C           16.0293   -12.5060     5.8973 C       7      r7     0.0020
   7467 C           15.9169   -11.6195     3.8371 C       5      r5     0.0094
   7468 C           17.1770   -11.4141     4.3532 C       7      r7     0.0017
   7469 C           17.2762   -11.8602     5.7017 C       7      r7    -0.0006
   7470 C           18.1343   -15.0891     2.3882 C       7      r7     0.2459
   7471 C           18.3308   -11.5175     6.6192 C       7      r7    -0.0015
   7472 C           18.9767   -15.3522     3.4444 C       7      r7    -0.0402
   7473 C           20.0272   -14.4661     3.9020 C       7      r7     0.0042
   7474 C           20.2692   -12.5399     2.2378 C       7      r7    -0.0127
   7475 C           20.3377   -14.8540     5.2011 C       5      r5     0.0013
   7476 C           20.5978   -13.3311     3.3617 C       7      r7     0.0011
   7477 C           21.2854   -14.1365     6.0464 C       6      r6    -0.0023
   7478 C           21.4953   -12.5752     4.1487 C       7      r7    -0.0014
   7479 C           21.9184   -12.8973     5.5569 C       7      r7    -0.0022
   7480 C           22.7418   -12.0873     6.4169 C       7      r7     0.0005
   7481 C           24.0423   -15.0325     2.7517 C       7      r7    -0.0008
   7482 C           24.5038   -13.6851     2.3181 C       6      r6    -0.0004
   7483 C           24.8415   -16.1320     3.2618 C       7      r7     0.0006
   7484 C          -25.0657    -7.0928     5.8105 C       5      r5     0.0007
   7485 C          -24.8541    -9.9763     4.6941 C       7      r7     0.0012
   7486 C          -23.6996    -7.0115     6.0977 C       5      r5    -0.0003
   7487 C          -23.5549    -9.9995     3.6064 C       7      r7     0.0005
   7488 C          -23.1103   -11.1354     6.3644 C       7      r7     0.0016
   7489 C          -22.7346    -7.6822     2.6513 C       7      r7     0.0013
   7490 C          -22.7340   -11.1684     3.9376 C       7      r7    -0.0008
   7491 C          -22.4544    -8.8329     3.4521 C       7      r7     0.0008
   7492 C          -22.1484   -11.2464     5.2555 C       7      r7     0.0006
   7493 C          -21.1288    -8.9980     4.0873 C       7      r7     0.0011
   7494 C          -20.9997    -7.9875     5.1469 C       7      r7     0.0007
   7495 C          -19.9389    -8.1120     6.1517 C       6      r6    -0.0008
   7496 C          -19.7850   -11.1319     3.1267 C       6      r6    -0.0012
   7497 C          -19.8821    -9.7485     3.7850 C       6      r6     0.0003
   7498 C          -18.7642    -8.8409     5.7830 C       7      r7     0.0003
   7499 C          -18.7008    -9.3894     4.4980 C       7      r7    -0.0008
   7500 C          -17.6383    -9.3441     6.8708 C       7      r7    -0.0013
   7501 C          -17.3472    -9.8305     2.3788 C       7      r7     0.0001
   7502 C          -17.2240    -9.6871     3.9174 C       7      r7    -0.0010
   7503 C          -16.8970   -10.5628     6.2293 C       7      r7    -0.0006
   7504 C          -16.7649   -10.8568     4.8984 C       7      r7    -0.0004
   7505 C          -16.5162    -8.2958     6.7969 C       7      r7    -0.0014
   7506 C          -16.2024    -8.5806     4.2310 C       7      r7    -0.0005
   7507 C          -15.7077    -7.6654     3.1982 C       0      r0    -0.0016
   7508 C          -15.7568    -8.1785     5.5305 C       7      r7    -0.0010
   7509 C          -14.5238    -7.3291     5.5725 C       6      r6     0.0010
   7510 C          -13.7219   -11.1462     5.8334 C       7      r7    -0.0029
   7511 C          -13.3925    -7.4223     4.6558 C       6      r6     0.0103
   7512 C          -13.0505   -11.0722     3.3518 C       6      r6    -0.0061
   7513 C          -13.0243    -8.4645     3.6600 C       0      r0     0.0013
   7514 C          -12.4346    -9.7881     3.6482 C       6      r6     0.0031
   7515 C          -12.4188   -10.6683     6.1629 C       7      r7     0.0055
   7516 C          -11.5430   -10.3309     4.8887 C       6      r6    -0.0011
   7517 C          -10.3115    -9.5548     5.3777 C       5      r5     0.0113
   7518 C           -9.8467    -9.5437     6.7118 C       7      r7     0.0238
   7519 C           -9.1223    -9.3480     4.5922 C       5      r5     0.0025
   7520 C           -8.7048    -9.4688     3.2316 C       5      r5     0.0010
   7521 C           -7.9610    -9.3859     5.5184 C       5      r5     0.0007
   7522 C           -7.1998    -9.5387     3.3279 C       5      r5    -0.0004
   7523 C           -6.8486    -9.1100     4.6289 C       5      r5    -0.0003
   7524 C           -5.9600    -6.8046     5.1086 C       5      r5     0.0003
   7525 C           -5.6546    -8.2441     4.9230 C       5      r5    -0.0012
   7526 C           -4.9420   -10.2977     2.7608 C       0      r0    -0.0042
   7527 C           -4.3534    -8.6339     5.3781 C       5      r5    -0.0037
   7528 C           -4.2769   -10.0216     5.9816 C       5      r5    -0.0029
   7529 C           -3.7809    -7.2966     5.6850 C       5      r5     0.0011
   7530 C           -3.6393   -10.7347     3.1129 C       0      r0    -0.0018
   7531 C           -2.4306    -7.0316     5.0942 C       0      r0     0.0007
   7532 C           -2.3509   -10.0476     2.8280 C       7      r7    -0.0020
   7533 C           -1.1398    -7.5071     5.6894 C       0      r0    -0.0003
   7534 C           -1.1326   -10.8305     2.8999 C       7      r7     0.0002
   7535 C            0.0177    -7.3807     4.9872 C       0      r0    -0.0014
   7536 C           -0.0784   -11.3414     3.8281 C       5      r5    -0.0036
   7537 C            1.0935    -7.2468     4.3114 C       0      r0    -0.0021
   7538 C            1.2998    -8.2329     3.2199 C       5      r5    -0.0021
   7539 C            2.5930    -8.9610     2.9531 C       7      r7    -0.0025
   7540 C            3.1289    -8.1352     5.9129 C       6      r6    -0.0026
   7541 C            3.1440    -9.4928     5.4356 C       7      r7    -0.0010
   7542 C            3.1501   -10.4071     6.5353 C       7      r7    -0.0035
   7543 C            3.2659    -9.8574     3.8911 C       7      r7    -0.0023
   7544 C            3.5017    -7.0104     5.0193 C       5      r5    -0.0006
   7545 C            3.6264   -11.0949     3.2844 C       7      r7     0.0004
   7546 C            4.7722    -6.9577     4.3305 C       5      r5    -0.0004
   7547 C            5.8733    -9.5496     6.4982 C       5      r5     0.0003
   7548 C            5.6469    -8.1119     6.4480 C       5      r5    -0.0009
   7549 C            5.8026   -10.6026     5.5166 C       5      r5    -0.0068
   7550 C            5.8118    -7.3644     5.1904 C       0      r0    -0.0001
   7551 C            6.4121   -10.7204     4.2754 C       5      r5     0.0017
   7552 C            7.1698    -7.3808     4.5579 C       0      r0    -0.0004
   7553 C            7.2856    -9.8461     3.5701 C       5      r5     0.0002
   7554 C            7.4589    -8.3910     3.5636 C       5      r5    -0.0005
   7555 C            7.8715   -10.3486     2.3700 C       5      r5    -0.0001
   7556 C            8.2631    -7.9943     2.3845 C       7      r7     0.0002
   7557 C            9.6002    -6.9102     4.8928 C       6      r6     0.0016
   7558 C            9.8652    -8.2863     5.4001 C       7      r7     0.0006
   7559 C            9.9857   -10.7605     4.5713 C       7      r7    -0.0011
   7560 C           10.5369    -9.3733     4.6526 C       7      r7    -0.0002
   7561 C           11.9222    -9.3281     4.2297 C       5      r5     0.0002
   7562 C           12.0298   -10.6739     3.5898 C       7      r7    -0.0037
   7563 C           12.9189   -11.1017     2.6096 C       7      r7     0.0055
   7564 C           13.0779    -8.6852     4.9167 C       6      r6    -0.0009
   7565 C           13.3306    -9.4679     6.1241 C       5      r5    -0.0007
   7566 C           13.9074    -6.9954     3.1186 C       0      r0    -0.0009
   7567 C           14.0730    -7.7627     4.3427 C       6      r6    -0.0020
   7568 C           14.7040    -9.6216     6.4856 C       5      r5    -0.0022
   7569 C           15.2762    -7.5435     5.1239 C       6      r6    -0.0010
   7570 C           15.4116   -10.8739     2.7492 C       5      r5     0.0396
   7571 C           15.6292    -8.6199     6.0307 C       6      r6    -0.0018
   7572 C           17.4914    -9.8234     2.5181 C       5      r5     0.0041
   7573 C           18.0060   -10.6369     3.5634 C       7      r7     0.0095
   7574 C           18.3140    -8.6549     2.3042 C       5      r5    -0.0004
   7575 C           19.0512    -9.8532     4.1063 C       7      r7    -0.0038
   7576 C           19.2648    -8.6434     3.3925 C       5      r5     0.0001
   7577 C           19.3454   -10.5544     6.5242 C       7      r7    -0.0018
   7578 C           19.6495    -9.8477     5.4034 C       7      r7    -0.0005
   7579 C           20.1588    -7.8192     4.1620 C       5      r5    -0.0003
   7580 C           20.4286    -8.6977     5.3108 C       5      r5    -0.0005
   7581 C           21.1059   -11.3691     2.2086 C       7      r7     0.0021
   7582 C           21.2038    -8.3067     6.3863 C       6      r6     0.0004
   7583 C           21.8551   -11.4139     3.4085 C       7      r7    -0.0016
   7584 C           22.2649    -7.4452     6.1495 C       6      r6     0.0012
   7585 C           22.6418   -10.2594     3.7162 C       7      r7    -0.0014
   7586 C           22.9305    -9.3228     2.7058 C       5      r5    -0.0006
   7587 C           23.3839   -10.0601     4.9402 C       7      r7     0.0003
   7588 C           23.3698    -7.0624     3.0823 C       6      r6     0.0002
   7589 C           23.6955   -11.1307     5.8596 C       7      r7     0.0013
   7590 C           23.8333    -8.4114     3.3219 C       5      r5     0.0000
   7591 C           24.4538    -9.1694     4.4546 C       5      r5     0.0010
   7592 C           25.1803   -11.0418     5.5620 C       7      r7     0.0015
   7593 C          -24.5612    -3.4971     3.6535 C       6      r6    -0.0001
   7594 C          -24.6005    -3.4654     6.2677 C       6      r6    -0.0005
   7595 C          -24.1732    -2.6878     2.5911 C       6      r6     0.0012
   7596 C          -24.1318    -4.7968     3.2023 C       6      r6     0.0011
   7597 C          -23.9713    -5.8455     4.2290 C       5      r5     0.0006
   7598 C          -23.1420    -3.5234     6.2278 C       5      r5    -0.0031
   7599 C          -22.9067    -6.3697     5.0820 C       5      r5    -0.0011
   7600 C          -22.1594    -3.2503     5.2435 C       7      r7    -0.0033
   7601 C          -22.2405    -2.6426     3.8912 C       7      r7    -0.0008
   7602 C          -21.9206    -6.3751     2.4114 C       7      r7     0.0012
   7603 C          -21.5309    -6.6514     4.9087 C       7      r7    -0.0017
   7604 C          -21.6454    -3.4780     2.8222 C       7      r7     0.0001
   7605 C          -21.1352    -6.0321     3.5903 C       7      r7     0.0003
   7606 C          -20.9919    -3.2809     6.0175 C       7      r7     0.0004
   7607 C          -20.2402    -3.8284     2.8323 C       7      r7     0.0003
   7608 C          -20.0611    -5.0298     3.6871 C       7      r7    -0.0006
   7609 C          -19.9800    -2.3704     5.9172 C       7      r7    -0.0102
   7610 C          -18.7033    -5.4480     4.1321 C       6      r6    -0.0003
   7611 C          -18.6443    -2.6294     6.2792 C       7      r7     0.0179
   7612 C          -18.2150    -4.0341     6.2362 C       7      r7     0.0181
   7613 C          -17.7805    -4.5830     4.9684 C       7      r7    -0.0046
   7614 C          -17.9184    -6.3484     3.2515 C       6      r6    -0.0003
   7615 C          -16.5031    -4.1249     4.3586 C       7      r7     0.0071
   7616 C          -16.2687    -2.7166     4.1450 C       7      r7     0.0015
   7617 C          -16.4462    -6.3552     3.1967 C       6      r6    -0.0010
   7618 C          -15.8424    -4.9707     3.3643 C       6      r6    -0.0040
   7619 C          -14.5684    -6.3091     6.6753 C       5      r5     0.0026
   7620 C          -13.9292    -5.0212     6.6678 C       5      r5     0.0017
   7621 C          -12.9844    -4.9038     5.4850 C       6      r6     0.0090
   7622 C          -12.8781    -6.0165     4.5368 C       6      r6     0.0064
   7623 C          -12.1644    -2.4838     5.9492 C       5      r5     0.0087
   7624 C          -12.0359    -5.7959     3.3519 C       5      r5    -0.0021
   7625 C          -12.0686    -3.8239     5.3467 C       5      r5     0.0005
   7626 C          -10.7093    -6.4370     3.2003 C       7      r7     0.0040
   7627 C          -10.6416    -3.8681     5.0001 C       5      r5    -0.0030
   7628 C          -10.0148    -2.5965     4.7547 C       5      r5    -0.0038
   7629 C           -9.8294    -5.1302     5.1525 C       6      r6     0.0151
   7630 C           -9.5706    -6.0632     4.0967 C       7      r7     0.0067
   7631 C           -8.9862    -4.9445     6.3189 C       7      r7     0.0259
   7632 C           -8.1611    -6.3281     3.9417 C       7      r7    -0.0011
   7633 C           -7.5314    -6.5573     2.5788 C       7      r7    -0.0020
   7634 C           -7.5398    -5.1661     6.1696 C       7      r7     0.0027
   7635 C           -7.4014    -3.1387     2.5907 C       6      r6    -0.0018
   7636 C           -7.2753    -6.1109     5.0685 C       6      r6     0.0057
   7637 C           -6.3895    -4.4583     6.7802 C       7      r7     0.0003
   7638 C           -5.9950    -3.4836     2.8617 C       6      r6    -0.0011
   7639 C           -5.5689    -4.8641     2.5991 C       7      r7     0.0008
   7640 C           -5.1172    -2.4242     3.3507 C       6      r6    -0.0019
   7641 C           -5.0555    -4.9410     6.4438 C       6      r6    -0.0018
   7642 C           -4.8174    -6.2160     5.7385 C       5      r5     0.0028
   7643 C           -4.2680    -5.0664     3.0375 C       7      r7     0.0007
   7644 C           -3.7891    -2.6637     3.2916 C       6      r6    -0.0011
   7645 C           -3.4835    -4.0149     3.4859 C       5      r5    -0.0006
   7646 C           -3.4270    -6.2643     2.9845 C       7      r7     0.0009
   7647 C           -2.3833    -6.0794     3.9643 C       5      r5     0.0005
   7648 C           -2.5682    -4.6306     4.2205 C       5      r5    -0.0003
   7649 C           -1.5799    -2.4095     4.1194 C       7      r7    -0.0010
   7650 C           -1.5346    -3.7593     4.5418 C       7      r7    -0.0006
   7651 C           -0.5966    -4.7384     6.5730 C       7      r7    -0.0013
   7652 C           -0.3931    -4.4626     5.1223 C       7      r7    -0.0009
   7653 C            1.0372    -4.1320     4.8259 C       7      r7     0.0026
   7654 C            1.2898    -2.8103     5.2626 C       7      r7     0.0044
   7655 C            2.1522    -4.9489     5.0655 C       6      r6     0.0022
   7656 C            2.3901    -6.1630     4.3435 C       5      r5     0.0008
   7657 C            2.5070    -2.2801     5.5285 C       6      r6     0.0066
   7658 C            3.1471    -6.0728     2.8964 C       7      r7     0.0039
   7659 C            3.1596    -4.5282     5.8706 C       6      r6     0.0019
   7660 C            3.4970    -3.1653     6.0657 C       6      r6     0.0014
   7661 C            4.5368    -6.3108     2.8956 C       7      r7     0.0035
   7662 C            4.8147    -2.8094     6.5098 C       7      r7     0.0009
   7663 C            8.1651    -6.4336     6.7581 C       6      r6     0.0003
   7664 C            8.2116    -6.6985     5.3083 C       6      r6    -0.0003
   7665 C            8.3376    -2.3390     2.5276 C       6      r6    -0.0003
   7666 C           10.5947    -5.8020     4.5643 C       0      r0    -0.0000
   7667 C           10.7546    -2.2583     2.9443 C       7      r7    -0.0007
   7668 C           11.0382    -4.7424     5.6110 C       0      r0     0.0006
   7669 C           11.2028    -6.0612     3.3923 C       0      r0     0.0000
   7670 C           11.0810    -3.3162     5.3513 C       0      r0    -0.0002
   7671 C           11.5257    -2.6787     4.0735 C       7      r7     0.0011
   7672 C           13.0154    -2.6142     3.9719 C       7      r7     0.0013
   7673 C           13.7131    -3.5010     3.0538 C       7      r7     0.0017
   7674 C           14.3830    -4.6944     3.6707 C       6      r6    -0.0013
   7675 C           14.8537    -5.8513     2.9054 C       6      r6    -0.0015
   7676 C           14.8328    -3.0517     5.4514 C       6      r6     0.0017
   7677 C           14.9853    -4.3649     4.9010 C       6      r6     0.0008
   7678 C           16.1916    -5.0524     5.1013 C       6      r6    -0.0010
   7679 C           16.3008    -6.4904     5.1195 C       6      r6    -0.0013
   7680 C           17.2659    -2.9160     5.3673 C       7      r7     0.0021
   7681 C           17.3159    -4.2154     5.0104 C       7      r7     0.0014
   7682 C           17.5815    -6.8204     5.6947 C       6      r6    -0.0008
   7683 C           18.6130    -4.8516     4.6950 C       7      r7    -0.0007
   7684 C           18.7426    -5.9991     5.5959 C       6      r6    -0.0005
   7685 C           19.6713    -2.1986     5.6345 C       7      r7     0.0012
   7686 C           19.7537    -4.2507     4.0528 C       7      r7     0.0008
   7687 C           20.3318    -3.0188     4.6032 C       7      r7     0.0023
   7688 C           20.6490    -5.3100     3.5273 C       0      r0    -0.0006
   7689 C           20.9107    -6.5910     4.2529 C       6      r6    -0.0006
   7690 C           21.0575    -5.3591     6.2536 C       7      r7     0.0013
   7691 C           21.9543    -6.2462     5.2896 C       6      r6     0.0008
   7692 C           22.9933    -3.7708     6.4806 C       7      r7    -0.0026
   7693 C           23.1582    -5.2360     4.7604 C       6      r6     0.0008
   7694 C           23.7238    -4.0824     5.2358 C       6      r6    -0.0012
   7695 C           23.9937    -6.0106     3.8798 C       0      r0     0.0014
   7696 C           25.0671    -3.1538     4.9679 C       6      r6    -0.0006
   7697 C          -25.1932    -6.3905     4.5714 C       5      r5     0.0001
   7698 C          -24.3888    -0.6985     6.7463 C       0      r0     0.0031
   7699 C          -24.1818    -1.1900     2.5264 C       6      r6     0.0009
   7700 C          -22.9561    -0.4134     2.8483 C       6      r6     0.0008
   7701 C          -22.7627     1.0143     2.5777 C       6      r6     0.0016
   7702 C          -22.1849    -1.1878     3.8641 C       7      r7    -0.0010
   7703 C          -21.6460     0.6403     5.7433 C       5      r5    -0.0021
   7704 C          -21.5669     1.8960     2.7283 C       6      r6    -0.0000
   7705 C          -21.4854    -0.6063     5.0123 C       7      r7    -0.0026
   7706 C          -20.9820     1.7599     5.1348 C       5      r5    -0.0002
   7707 C          -20.5033     1.6326     3.7366 C       0      r0    -0.0003
   7708 C          -20.1327    -1.1395     5.3996 C       7      r7     0.0015
   7709 C          -19.0855     1.3843     3.4021 C       7      r7     0.0006
   7710 C          -18.8662    -0.4917     5.2991 C       5      r5    -0.0078
   7711 C          -18.3497     0.4089     4.2357 C       7      r7     0.0068
   7712 C          -17.9489    -1.5145     5.7502 C       7      r7     0.0222
   7713 C          -17.2622    -0.5304     3.9223 C       7      r7    -0.0043
   7714 C          -16.8122    -1.5390     4.8782 C       7      r7     0.0184
   7715 C          -16.8626    -0.9806     2.6021 C       7      r7     0.0018
   7716 C          -16.1182    -2.1937     2.7807 C       5      r5    -0.0030
   7717 C          -14.5190     1.5422     2.7061 C       7      r7    -0.0004
   7718 C          -13.4970     0.9425     5.0891 C       7      r7     0.0020
   7719 C          -13.6228     0.8428     3.6335 C       7      r7     0.0002
   7720 C          -13.2280    -1.4712     6.1463 C       5      r5    -0.0057
   7721 C          -12.6811    -0.2114     5.5815 C       5      r5     0.0003
   7722 C          -12.5541     0.0706     2.9497 C       6      r6    -0.0010
   7723 C          -11.3293    -0.4660     5.0703 C       5      r5    -0.0047
   7724 C          -11.3464    -0.3108     3.6374 C       6      r6     0.0021
   7725 C          -10.9616    -1.7676     5.5617 C       5      r5    -0.0025
   7726 C          -10.2963    -0.9868     2.8528 C       6      r6    -0.0111
   7727 C           -9.4193    -1.8792     3.6205 C       6      r6    -0.0030
   7728 C           -9.1058     1.8636     2.9930 C       0      r0     0.0030
   7729 C           -8.8072     1.9155     5.6169 C       7      r7    -0.0027
   7730 C           -8.7113     1.2940     4.2666 C       5      r5    -0.0031
   7731 C           -7.9691    -1.8991     3.1959 C       6      r6    -0.0043
   7732 C           -7.4942     0.4963     4.2116 C       5      r5     0.0009
   7733 C           -7.6337     1.5487     6.3894 C       7      r7     0.0115
   7734 C           -7.1177    -0.8554     3.6609 C       6      r6    -0.0022
   7735 C           -6.8469     0.8251     5.4481 C       5      r5    -0.0092
   7736 C           -5.6811    -1.1814     3.8389 C       6      r6    -0.0015
   7737 C           -5.4557     0.4146     5.7918 C       6      r6     0.0078
   7738 C           -4.7780    -0.3104     4.6763 C       6      r6    -0.0011
   7739 C           -2.5926     0.8755     6.4309 C       7      r7    -0.0033
   7740 C           -2.6646    -1.7988     3.3675 C       6      r6    -0.0009
   7741 C           -2.4114    -0.5905     2.6178 C       7      r7    -0.0009
   7742 C           -1.4098     0.0084     6.6468 C       7      r7    -0.0037
   7743 C           -1.2910     0.1645     3.0760 C       7      r7    -0.0001
   7744 C           -0.7181     1.4112     2.6167 C       7      r7     0.0004
   7745 C           -0.4914    -1.6623     4.4703 C       7      r7     0.0023
   7746 C           -0.2610    -0.4235     3.9170 C       5      r5     0.0013
   7747 C           -0.5054    -2.3503     6.7734 C       7      r7    -0.0010
   7748 C            0.4153     1.8702     6.7434 C       5      r5    -0.0026
   7749 C            0.1903    -2.1052     5.6019 C       7      r7    -0.0029
   7750 C            0.6579     1.4604     3.1260 C       7      r7     0.0024
   7751 C            0.9288     0.3608     4.0559 C       5      r5     0.0080
   7752 C            1.8421     2.0363     2.5094 C       7      r7     0.0054
   7753 C            2.1948     0.1505     4.6930 C       5      r5     0.0104
   7754 C            2.8574    -0.9227     5.3206 C       5      r5     0.0063
   7755 C            3.0361     1.6246     3.1168 C       5      r5    -0.0001
   7756 C            3.1982     1.2301     4.5165 C       7      r7     0.0008
   7757 C            3.9326     0.7974     2.4028 C       7      r7     0.0181
   7758 C            4.2542    -0.7386     5.4309 C       5      r5     0.0059
   7759 C            4.5314     0.4119     4.6005 C       7      r7    -0.0020
   7760 C            4.8273     0.1022     3.2339 C       7      r7     0.0194
   7761 C            5.0751     2.0436     6.1340 C       5      r5    -0.0002
   7762 C            5.2135    -1.5429     6.1068 C       7      r7     0.0004
   7763 C            5.8378     1.3250     5.1076 C       7      r7    -0.0017
   7764 C            5.9644    -0.7659     2.9890 C       7      r7     0.0037
   7765 C            6.5884    -1.0499     6.2786 C       7      r7    -0.0005
   7766 C            6.9716     0.0393     5.2747 C       7      r7    -0.0007
   7767 C            7.1131     2.1760     2.9366 C       7      r7    -0.0019
   7768 C            7.0490    -0.7583     3.9740 C       7      r7    -0.0004
   7769 C            7.6235    -1.8139     6.7868 C       7      r7    -0.0010
   7770 C            8.2871     0.6715     5.6438 C       7      r7    -0.0008
   7771 C            8.2802    -1.0054     3.2865 C       7      r7    -0.0010
   7772 C            8.5297     1.4915     3.1664 C       7      r7     0.0003
   7773 C            8.9128     1.5368     4.7379 C       7      r7    -0.0008
   7774 C            8.8769    -1.1663     7.0646 C       5      r5     0.0003
   7775 C            8.9175     0.1219     2.6514 C       7      r7    -0.0013
   7776 C            9.1856     0.0605     6.5214 C       6      r6     0.0005
   7777 C           10.5565     0.3121     6.4055 C       5      r5     0.0004
   7778 C           11.0500     1.6791     6.1626 C       7      r7     0.0005
   7779 C           11.0124    -2.1564     6.3496 C       6      r6     0.0013
   7780 C           11.3628    -0.8011     6.0432 C       5      r5     0.0005
   7781 C           12.4594     1.2621     5.9889 C       5      r5     0.0015
   7782 C           12.6706    -0.1743     5.9718 C       5      r5    -0.0003
   7783 C           13.6661     1.9503     6.3879 C       7      r7    -0.0008
   7784 C           13.8077    -2.1550     5.1173 C       6      r6    -0.0005
   7785 C           13.8346    -0.8739     5.6675 C       6      r6    -0.0003
   7786 C           14.9083     1.1847     6.1921 C       7      r7    -0.0018
   7787 C           15.0335    -0.1130     5.7645 C       6      r6     0.0009
   7788 C           16.0275    -2.2997     5.6249 C       5      r5    -0.0000
   7789 C           16.2584    -0.8773     5.6842 C       5      r5     0.0000
   7790 C           17.2913     0.9055     2.6506 C       7      r7     0.0005
   7791 C           17.5233     1.8115     3.6745 C       7      r7     0.0017
   7792 C           17.6564    -0.6099     5.6862 C       5      r5    -0.0008
   7793 C           18.0987    -0.1891     2.4517 C       7      r7    -0.0006
   7794 C           18.1109     1.8449     4.9127 C       7      r7    -0.0092
   7795 C           18.2684    -1.8926     5.4749 C       7      r7     0.0002
   7796 C           18.5057     0.5054     5.3498 C       7      r7     0.0005
   7797 C           19.3541    -0.4075     3.1968 C       7      r7     0.0001
   7798 C           19.6719     0.1303     4.5012 C       7      r7    -0.0015
   7799 C           20.2382    -1.4875     2.8554 C       7      r7     0.0009
   7800 C           20.4128    -1.5593     6.7625 C       5      r5    -0.0012
   7801 C           21.0041     0.2461     5.0842 C       0      r0    -0.0023
   7802 C           21.2384    -2.1207     3.8191 C       7      r7     0.0010
   7803 C           21.3146    -0.4366     6.3132 C       5      r5    -0.0035
   7804 C           22.0292     0.9345     4.2411 C       0      r0    -0.0009
   7805 C           22.6229    -2.1991     3.4230 C       7      r7     0.0019
   7806 C           23.3620     0.2533     4.3461 C       5      r5    -0.0002
   7807 C           23.5109    -1.2188     4.1450 C       5      r5     0.0003
   7808 C           23.8608     1.5395     6.3668 C       6      r6    -0.0003
   7809 C           24.3597     0.6651     5.2959 C       5      r5    -0.0008
   7810 C           24.6141    -1.7163     4.9034 C       5      r5    -0.0010
   7811 C           25.1514    -0.5788     5.7081 C       5      r5    -0.0007
   7812 C          -24.3711     4.9771     6.2956 C       7      r7    -0.0022
   7813 C          -24.0000     6.4145     4.2695 C       7      r7    -0.0020
   7814 C          -23.7965     5.1693     5.0416 C       7      r7    -0.0012
   7815 C          -23.6605     3.9083     6.7574 C       7      r7     0.0016
   7816 C          -23.5303     6.2761     2.8824 C       7      r7    -0.0018
   7817 C          -22.7617     4.2423     4.5480 C       5      r5    -0.0005
   7818 C          -22.6099     3.5645     5.7766 C       5      r5    -0.0020
   7819 C          -21.5019     4.7488     3.9882 C       5      r5     0.0014
   7820 C          -21.4172     2.7984     6.1243 C       5      r5    -0.0022
   7821 C          -21.2840     6.1688     6.2787 C       6      r6     0.0013
   7822 C          -20.8653     5.7177     4.9233 C       5      r5     0.0029
   7823 C          -20.6849     4.2926     2.9036 C       5      r5     0.0016
   7824 C          -19.4793     5.4085     4.5627 C       7      r7     0.0006
   7825 C          -19.3500     4.7986     3.2097 C       7      r7     0.0016
   7826 C          -18.6968     5.0535     5.7123 C       7      r7    -0.0012
   7827 C          -18.2231     5.0811     2.3261 C       7      r7     0.0029
   7828 C          -17.3499     4.6099     5.4959 C       7      r7    -0.0018
   7829 C          -16.9678     4.5491     2.9023 C       7      r7    -0.0005
   7830 C          -16.5957     4.3781     6.7222 C       6      r6    -0.0016
   7831 C          -16.5768     4.2883     4.2753 C       7      r7    -0.0015
   7832 C          -15.4552     3.3563     4.3272 C       7      r7    -0.0004
   7833 C          -15.2163     2.7762     2.9826 C       7      r7    -0.0011
   7834 C          -15.2551     3.7888     6.7735 C       6      r6    -0.0014
   7835 C          -14.6970     3.1897     5.5369 C       7      r7    -0.0002
   7836 C          -13.8792     6.7132     6.6647 C       7      r7     0.0018
   7837 C          -13.8907     6.3976     3.4869 C       7      r7    -0.0017
   7838 C          -13.5827     2.2452     5.7456 C       7      r7     0.0015
   7839 C          -12.7799     5.5855     3.9191 C       7      r7    -0.0010
   7840 C          -12.6871     5.8893     6.5208 C       7      r7     0.0019
   7841 C          -12.3122     2.5384     6.4812 C       5      r5    -0.0016
   7842 C          -12.1060     4.6778     2.9271 C       5      r5     0.0003
   7843 C          -12.3051     5.3843     5.2358 C       7      r7     0.0006
   7844 C          -11.1879     4.3570     4.9867 C       5      r5    -0.0018
   7845 C          -11.1631     3.1338     5.7686 C       5      r5    -0.0030
   7846 C          -11.0043     4.0299     3.5687 C       5      r5     0.0002
   7847 C          -10.3776     2.7729     2.8642 C       6      r6    -0.0005
   7848 C           -9.9327     2.5553     6.3189 C       7      r7    -0.0002
   7849 C           -8.8492     6.8876     2.9527 C       7      r7    -0.0008
   7850 C           -7.9943     5.9727     3.7185 C       5      r5    -0.0012
   7851 C           -7.4892     4.6715     3.2959 C       5      r5    -0.0006
   7852 C           -6.9448     6.4965     4.5631 C       7      r7     0.0005
   7853 C           -6.0941     4.4718     3.6801 C       7      r7    -0.0009
   7854 C           -5.7983     5.6035     4.6060 C       7      r7     0.0037
   7855 C           -5.2531     3.6078     2.8539 C       7      r7    -0.0007
   7856 C           -4.5294     6.3120     4.5208 C       7      r7     0.0008
   7857 C           -3.7732     3.4422     3.1589 C       7      r7    -0.0011
   7858 C           -3.2487     3.9912     4.3904 C       7      r7     0.0025
   7859 C           -3.2392     5.4837     4.7874 C       7      r7     0.0005
   7860 C           -2.9430     5.6210     6.3326 C       7      r7     0.0018
   7861 C           -2.9344     2.5482     2.2907 C       7      r7    -0.0017
   7862 C           -2.5739     2.3472     6.2992 C       7      r7     0.0023
   7863 C           -2.2953     3.1037     5.0726 C       7      r7    -0.0010
   7864 C           -1.8267     6.0261     2.5417 C       7      r7    -0.0004
   7865 C           -1.7079     5.9264     4.0547 C       7      r7    -0.0002
   7866 C           -0.9420     3.6644     5.2070 C       6      r6    -0.0025
   7867 C           -0.7224     4.8283     4.3795 C       6      r6    -0.0008
   7868 C            0.1542     3.0092     5.9165 C       5      r5    -0.0027
   7869 C            0.6203     4.9093     3.8524 C       6      r6    -0.0007
   7870 C            0.6205     5.8693     2.7172 C       6      r6    -0.0000
   7871 C            1.4697     3.4774     5.6603 C       5      r5    -0.0015
   7872 C            1.7668     4.2932     4.5179 C       6      r6    -0.0009
   7873 C            2.4714     2.7169     6.3908 C       5      r5    -0.0019
   7874 C            3.0194     4.3572     3.8947 C       5      r5     0.0002
   7875 C            3.6824     2.3603     5.6394 C       7      r7    -0.0005
   7876 C            3.6984     4.5481     2.6403 C       5      r5    -0.0020
   7877 C            3.7943     6.1695     6.0250 C       7      r7     0.0009
   7878 C            4.0064     3.7341     4.7712 C       7      r7    -0.0001
   7879 C            4.4703     4.8685     5.8071 C       7      r7    -0.0005
   7880 C            5.0021     3.9149     2.6972 C       5      r5    -0.0013
   7881 C            5.2382     3.3678     3.9350 C       7      r7    -0.0012
   7882 C            5.7643     4.4833     6.3571 C       7      r7    -0.0006
   7883 C            5.7334     3.0974     6.8541 C       6      r6    -0.0013
   7884 C            6.1945     2.3336     4.0262 C       7      r7    -0.0020
   7885 C            7.0981     6.3926     5.1421 C       7      r7     0.0010
   7886 C            7.0738     5.0599     5.8060 C       7      r7     0.0006
   7887 C            8.2407     4.3338     6.1057 C       7      r7     0.0001
   7888 C            9.5995     6.2367     4.9707 C       7      r7    -0.0002
   7889 C            9.5188     2.3459     2.4772 C       5      r5    -0.0010
   7890 C            9.6519     4.7971     5.4789 C       7      r7     0.0002
   7891 C            9.9205     3.5829     3.0499 C       6      r6     0.0014
   7892 C           10.1356     2.2200     5.0042 C       7      r7     0.0001
   7893 C           10.0968     3.5950     4.4656 C       7      r7     0.0014
   7894 C           10.5708     5.0501     6.7072 C       7      r7     0.0002
   7895 C           10.9976     6.4385     6.8023 C       7      r7     0.0024
   7896 C           13.6262     6.7006     2.0492 C       5      r5     0.0012
   7897 C           16.4919     2.9732     6.5081 C       7      r7    -0.0527
   7898 O           16.5382     5.4855     6.7091 O       5      r5    -0.5119
   7899 C           17.0415     3.1426     3.4183 C       5      r5    -0.0017
   7900 C           17.3639     6.3267     3.6105 C       7      r7     0.0059
   7901 C           17.3498     6.1385     2.2307 C       7      r7    -0.0038
   7902 C           17.5383     4.0013     4.4373 C       5      r5     0.0138
   7903 C           17.8272     3.1151     5.6343 C       5      r5     0.0266
   7904 C           17.9244     5.3405     4.3892 C       6      r6     0.0309
   7905 C           18.8620     5.7686     5.3484 C       6      r6     0.0305
   7906 C           18.9164     3.6411     6.4994 C       7      r7     0.0079
   7907 C           19.2543     4.8900     6.3820 C       7      r7     0.0250
   7908 C           19.6900     5.1717     2.4456 C       7      r7    -0.0047
   7909 C           20.0884     3.7866     2.3471 C       7      r7    -0.0023
   7910 C           20.5129     6.2309     3.0046 C       6      r6    -0.0033
   7911 C           21.3799     3.4007     3.1202 C       6      r6    -0.0023
   7912 C           21.7387     2.1645     3.6400 C       0      r0    -0.0028
   7913 C           21.9326     5.9393     3.1246 C       5      r5    -0.0006
   7914 C           22.3372     4.5346     3.3039 C       5      r5    -0.0018
   7915 C           23.7851     4.5311     3.3270 C       5      r5    -0.0023
   7916 C           24.0817     5.9293     3.7403 C       7      r7    -0.0032
   7917 C           25.0552     6.7489     4.4342 C       7      r7    -0.0041
   7918 C           25.2081     7.3952     6.8249 C       7      r7    -0.0040
   7919 C          -22.8642     9.9202     6.3965 C       6      r6    -0.0017
   7920 C          -22.4487     9.8511     3.1291 C       7      r7     0.0024
   7921 C          -22.6014     7.3295     2.4114 C       7      r7     0.0032
   7922 C          -22.2374    10.9654     5.5406 C       5      r5    -0.0032
   7923 C          -21.9820     8.4340     3.0943 C       7      r7     0.0401
   7924 C          -21.8565    10.7335     4.1437 C       5      r5     0.0018
   7925 C          -21.5909     7.5809     6.0233 C       7      r7    -0.0029
   7926 C          -20.5992     8.2512     3.7076 C       6      r6    -0.0584
   7927 C          -20.5279     8.1246     5.1417 C       7      r7     0.0125
   7928 C          -19.6072     8.6687     2.8314 C       6      r6     0.2659
   7929 C          -19.2609     8.5298     5.7945 C       7      r7    -0.0084
   7930 C          -18.4815     8.8951     3.5118 C       5      r5    -0.0735
   7931 C          -18.2183     8.5930     4.9130 C       7      r7     0.0148
   7932 C          -17.6325    11.0759     3.0968 C       7      r7    -0.0013
   7933 C          -17.3523     9.5308     2.9004 C       5      r5     0.0334
   7934 C          -16.8254     8.6427     5.0899 C       7      r7    -0.0009
   7935 C          -16.3838     8.8255     3.7351 C       5      r5    -0.0019
   7936 C          -15.9494     8.0190     6.1106 C       7      r7     0.0012
   7937 C          -15.3961     8.0493     3.2587 C       5      r5     0.0010
   7938 C          -15.5409    11.2323     4.4553 C       5      r5    -0.0053
   7939 C          -14.6920     7.4492     5.6999 C       7      r7     0.0030
   7940 C          -14.5974    10.7890     3.4106 C       7      r7    -0.0006
   7941 C          -14.5830     7.4156     4.2598 C       7      r7    -0.0013
   7942 C          -13.4368    10.8590     5.5441 C       5      r5     0.0065
   7943 C          -13.3163    10.6494     4.0698 C       7      r7    -0.0047
   7944 C          -12.2450    10.7652     6.2967 C       0      r0     0.0353
   7945 C          -12.0844    11.0138     3.4129 C       7      r7    -0.0013
   7946 C           -9.7070     9.3178     3.1854 C       7      r7     0.0006
   7947 C           -9.3977     7.9392     3.7755 C       7      r7    -0.0004
   7948 C           -9.3071     7.6299     6.4955 C       0      r0    -0.0004
   7949 C           -8.7590    10.3173     3.5882 C       7      r7     0.0004
   7950 C           -8.7054     7.8618     5.0628 C       7      r7    -0.0012
   7951 C           -8.6047    10.9238     6.2540 C       7      r7     0.0008
   7952 C           -7.3204    10.0229     3.5213 C       7      r7     0.0002
   7953 C           -7.2446     7.8882     4.9609 C       7      r7    -0.0011
   7954 C           -6.9006    10.8345     2.3278 C       7      r7     0.0000
   7955 C           -6.6359     8.8431     4.0156 C       7      r7    -0.0004
   7956 C           -6.0127    11.0792     5.8892 C       7      r7    -0.0003
   7957 C           -5.6669     8.2029     3.0999 C       7      r7     0.0009
   7958 C           -5.4997     9.8685     6.5287 C       7      r7    -0.0009
   7959 C           -4.5227     7.3210     3.4514 C       7      r7    -0.0018
   7960 C           -4.2034     9.2240     6.4192 C       6      r6    -0.0001
   7961 C           -3.9532    11.2323     3.0633 C       7      r7    -0.0005
   7962 C           -2.9862    10.0079     6.5157 C       6      r6    -0.0007
   7963 C           -2.8981     7.0933     6.4514 C       6      r6    -0.0009
   7964 C           -2.5115    11.2696     3.2072 C       6      r6     0.0026
   7965 C           -1.8930     9.9789     2.8572 C       6      r6     0.0020
   7966 C           -1.8044     7.8460     5.7675 C       6      r6    -0.0028
   7967 C           -1.7715     9.2643     6.2564 C       6      r6    -0.0016
   7968 C           -1.1932     7.3950     4.5594 C       6      r6    -0.0007
   7969 C           -0.6706     9.6828     3.6059 C       6      r6     0.0014
   7970 C           -0.4062     9.8641     6.5318 C       6      r6    -0.0041
   7971 C           -0.2155     8.3150     4.0023 C       0      r0    -0.0010
   7972 C           -0.1514    10.8705     4.2566 C       6      r6    -0.0015
   7973 C            0.4693    10.4002     5.4956 C       6      r6    -0.0004
   7974 C            1.2309     8.0704     3.6659 C       6      r6     0.0007
   7975 C            1.6773     6.8461     3.0105 C       6      r6     0.0004
   7976 C            1.9253    10.6158     5.7456 C       6      r6    -0.0018
   7977 C            2.3281     9.0684     3.7105 C       5      r5     0.0002
   7978 C            2.4490    10.2917     4.4337 C       5      r5     0.0001
   7979 C            3.0031    11.2837     3.4580 C       5      r5    -0.0023
   7980 C            3.2179     9.1601     2.5805 C       7      r7    -0.0001
   7981 C            3.6602    10.5140     2.4153 C       7      r7     0.0010
   7982 C            4.0740     8.5159     6.4936 C       5      r5    -0.0002
   7983 C            4.5083     9.9309     6.4979 C       6      r6     0.0001
   7984 C            4.6378     7.3710     5.7508 C       7      r7     0.0013
   7985 C            5.9858     9.7577     6.6068 C       6      r6     0.0002
   7986 C            6.0674     7.4515     5.4164 C       7      r7     0.0006
   7987 C            6.5997     8.7328     5.7381 C       6      r6     0.0002
   7988 C            7.8667     9.1701     5.1526 C       6      r6     0.0001
   7989 C            8.3240     6.8500     4.5291 C       7      r7     0.0009
   7990 C            8.4627     8.2768     4.1374 C       7      r7     0.0002
   7991 C            8.3925    10.5040     5.4747 C       7      r7     0.0003
   7992 C            9.3792     8.7913     3.1215 C       7      r7    -0.0001
   7993 C           10.5033     7.1820     5.5901 C       7      r7    -0.0004
   7994 C           10.7536     8.7274     3.6560 C       7      r7    -0.0009
   7995 C           10.7351     8.5737     5.1479 C       7      r7     0.0003
   7996 C           10.6908     9.6121     6.1767 C       7      r7    -0.0006
   7997 C           11.2410    11.0751     4.2102 C       6      r6    -0.0006
   7998 C           11.5936     7.9473     2.7361 C       6      r6     0.0002
   7999 C           11.3659    10.8033     5.6568 C       0      r0    -0.0002
   8000 C           13.0040     7.9624     2.4886 C       5      r5     0.0006
   8001 C           14.0594     8.8776     2.9633 C       5      r5    -0.0007
   8002 C           14.4780     9.9473     6.7047 C       7      r7     0.0024
   8003 C           14.3713    10.1002     3.6623 C       5      r5     0.0009
   8004 C           15.0518     6.7653     2.2036 C       7      r7     0.0032
   8005 C           15.1831     7.9242     3.0056 C       7      r7     0.0074
   8006 C           15.3570     9.4506     5.9653 C       7      r7    -0.0024
   8007 C           15.6970     9.8459     4.3973 C       7      r7     0.0019
   8008 C           16.2016     8.5279     3.7652 C       7      r7    -0.0020
   8009 C           16.2831     8.5924     6.7781 C       7      r7     0.0283
   8010 C           16.9108    10.8475     4.7473 C       7      r7    -0.0025
   8011 C           17.1384     7.5933     4.2292 C       7      r7     0.0156
   8012 C           17.7444    11.0517     5.9951 C       7      r7    -0.0004
   8013 C           17.7424     8.6576     6.4950 C       7      r7     0.0066
   8014 C           18.1059     7.9124     5.3049 C       7      r7     0.0175
   8015 C           18.4475     9.9745     6.6632 C       7      r7    -0.0057
   8016 C           19.3733     7.1308     5.1180 C       6      r6    -0.0094
   8017 C           20.1033     7.3981     3.8970 C       0      r0    -0.0050
   8018 C           20.4254     8.6843     3.4463 C       0      r0    -0.0041
   8019 C           20.9365     9.7371     3.0508 C       0      r0     0.0004
   8020 C           21.6880    10.8523     2.8282 C       7      r7    -0.0047
   8021 C           23.0075     6.8496     3.3929 C       7      r7    -0.0026
   8022 C           23.1793    10.6383     3.4500 C       7      r7     0.0042
   8023 C           23.3831     8.1806     2.8473 C       7      r7    -0.0070
   8024 C           23.4838     9.2290     3.8645 C       7      r7    -0.0024
   8025 C           24.2310     9.1029     5.1806 C       7      r7    -0.0002
   8026 C           24.1846    10.9212     2.3018 C       7      r7    -0.0018
   8027 C           24.6295     7.7149     5.5242 C       7      r7    -0.0049
   8028 C           24.7428    10.1678     6.0567 C       7      r7    -0.0060
   8029 C          -25.0927    12.7000     5.9621 C       7      r7     0.0098
   8030 C          -25.0015    13.8988     5.3314 C       0      r0     0.0257
   8031 C          -24.9173    15.1004     4.8340 C       6      r6     0.0021
   8032 C          -22.1664    13.6476     6.4553 C       5      r5    -0.0026
   8033 C          -21.9315    12.4199     5.7356 C       5      r5    -0.0015
   8034 C          -21.8147    14.7549     5.5495 C       7      r7    -0.0013
   8035 C          -21.6511    14.9349     2.9753 C       7      r7    -0.0013
   8036 C          -21.4048    14.2531     4.2384 C       7      r7    -0.0017
   8037 C          -21.0950    12.8425     4.6392 C       5      r5    -0.0016
   8038 C          -20.8084    11.6955     3.7795 C       5      r5    -0.0021
   8039 C          -20.1344    11.7847     2.4146 C       6      r6     0.0278
   8040 C          -18.6845    11.8146     2.2866 C       7      r7     0.0082
   8041 C          -17.8089    15.7309     6.0453 C       5      r5    -0.0014
   8042 C          -17.4335    14.3391     5.9965 C       5      r5    -0.0010
   8043 C          -16.8033    13.3100     3.6312 C       7      r7    -0.0035
   8044 C          -16.8436    11.8542     3.9263 C       7      r7    -0.0018
   8045 C          -16.9475    14.2965     4.6247 C       5      r5    -0.0019
   8046 C          -16.4128    13.7848     2.2887 C       7      r7    -0.0034
   8047 C          -16.6614    15.6281     4.1978 C       5      r5    -0.0025
   8048 C          -15.3981    12.0108     6.9155 C       0      r0     0.0067
   8049 C          -14.8646    11.2973     5.7465 C       5      r5     0.0094
   8050 C          -12.1067    13.5302     6.2344 C       0      r0    -0.0012
   8051 C          -11.7208    13.3399     4.7860 C       5      r5    -0.0001
   8052 C          -11.4555    15.7791     4.4158 C       0      r0     0.0203
   8053 C          -11.3133    12.1618     4.0031 C       5      r5    -0.0024
   8054 C          -11.0283    14.4194     4.0647 C       5      r5    -0.0061
   8055 C          -10.0400    14.0237     3.0483 C       7      r7    -0.0009
   8056 C          -10.0788    12.5623     3.3151 C       7      r7    -0.0006
   8057 C           -9.9177    11.4594     6.5005 C       7      r7    -0.0052
   8058 C           -9.8541    12.9053     6.4639 C       6      r6    -0.0020
   8059 C           -8.9653    11.6784     3.0436 C       7      r7    -0.0005
   8060 C           -8.9350    14.7479     2.3571 C       7      r7    -0.0029
   8061 C           -8.7255    13.7969     6.3752 C       5      r5    -0.0016
   8062 C           -8.6371    15.3281     6.8376 C       5      r5    -0.0017
   8063 C           -7.6056    12.0950     2.6305 C       7      r7    -0.0008
   8064 C           -7.6770    14.6267     3.1049 C       7      r7    -0.0013
   8065 C           -7.4793    13.1490     6.0919 C       7      r7    -0.0006
   8066 C           -7.3375    11.6694     5.9916 C       7      r7    -0.0001
   8067 C           -7.1559    15.4766     6.3226 C       5      r5    -0.0005
   8068 C           -6.9516    13.3194     3.0011 C       7      r7    -0.0008
   8069 C           -6.4687    14.2441     6.1843 C       7      r7    -0.0007
   8070 C           -5.4633    13.2221     3.0667 C       7      r7     0.0001
   8071 C           -5.0150    14.1884     6.2650 C       7      r7     0.0001
   8072 C           -4.9294    11.9034     5.2724 C       7      r7    -0.0006
   8073 C           -4.8649    12.1036     3.7999 C       7      r7    -0.0003
   8074 C           -4.2499    12.9399     6.0314 C       7      r7    -0.0014
   8075 C           -3.2631    14.4394     2.5914 C       0      r0     0.0311
   8076 C           -3.1804    12.5812     6.9321 C       5      r5    -0.0015
   8077 C           -2.2861    14.0217     3.5756 C       6      r6     0.0066
   8078 C           -1.8383    12.5578     3.5706 C       6      r6     0.0091
   8079 C           -1.5194    14.9827     4.3607 C       7      r7     0.0076
   8080 C           -0.4686    12.2693     3.8858 C       6      r6     0.0067
   8081 C           -0.1081    14.6350     4.6075 C       7      r7     0.0084
   8082 C            0.3962    13.3742     4.2769 C       5      r5     0.0049
   8083 C            0.9219    15.2861     5.3035 C       7      r7     0.0014
   8084 C            1.8084    13.3690     4.2196 C       5      r5     0.0017
   8085 C            2.1268    14.6026     4.9226 C       5      r5     0.0033
   8086 C            2.6036    12.6036     3.3076 C       0      r0     0.0050
   8087 C            3.3218    14.9503     5.5428 C       6      r6    -0.0006
   8088 C            3.4445    13.3371     2.5443 C       5      r5     0.0021
   8089 C            4.4508    14.0087     5.5277 C       5      r5    -0.0022
   8090 C            4.6678    13.5319     3.1932 C       5      r5    -0.0026
   8091 C            4.9994    13.2903     4.4985 C       5      r5    -0.0016
   8092 C            5.3683    14.4780     2.4330 C       7      r7    -0.0002
   8093 C            5.4720    14.0062     6.4608 C       7      r7    -0.0006
   8094 C            6.1865    12.6586     4.8693 C       7      r7    -0.0005
   8095 C            6.5228    13.0876     6.1252 C       7      r7     0.0013
   8096 C            6.7197    14.9396     2.6441 C       7      r7    -0.0015
   8097 C            6.6530    11.6433     2.8446 C       0      r0    -0.0002
   8098 C            7.2037    11.9192     3.9856 C       7      r7     0.0014
   8099 C            7.4964    14.6848     3.7502 C       6      r6    -0.0002
   8100 C            7.5853    15.5636     4.8797 C       6      r6    -0.0003
   8101 C            8.3123    15.2623     6.1030 C       6      r6     0.0003
   8102 C            8.7062    14.0769     3.4717 C       7      r7     0.0011
   8103 C            8.6206    11.3273     4.2750 C       7      r7     0.0004
   8104 C            9.9337    14.8088     3.9159 C       7      r7     0.0004
   8105 C            9.7866    12.2628     2.3731 C       7      r7     0.0001
   8106 C            9.8720    11.5169     3.6437 C       6      r6     0.0005
   8107 C           10.9627    13.9013     4.4709 C       7      r7    -0.0001
   8108 C           11.5705    14.0689     5.6858 C       6      r6     0.0008
   8109 C           11.8497    13.1707     3.3233 C       7      r7     0.0005
   8110 C           12.1864    11.6924     6.5170 C       0      r0    -0.0007
   8111 C           12.4070    11.7514     3.6462 C       6      r6    -0.0005
   8112 C           12.5929    13.0488     6.1040 C       6      r6     0.0003
   8113 C           12.7201    15.5253     3.6266 C       7      r7     0.0000
   8114 C           12.7882    14.2451     3.1169 C       7      r7     0.0003
   8115 C           13.7619    13.6134     6.8368 C       5      r5     0.0008
   8116 C           13.7809    11.4038     3.3119 C       6      r6    -0.0011
   8117 C           14.1575    13.8763     2.9680 C       5      r5     0.0010
   8118 C           14.5272    12.5190     2.6387 C       6      r6    -0.0007
   8119 C           15.0169    15.0400     3.3652 C       5      r5     0.0009
   8120 C           15.2431    13.6035     6.8653 C       7      r7    -0.0015
   8121 C           16.2869    13.3264     5.8489 C       7      r7    -0.0017
   8122 C           16.4338    14.9700     3.6942 C       0      r0    -0.0010
   8123 C           16.6727    14.5253     5.1201 C       7      r7    -0.0007
   8124 C           16.8711    15.7603     5.9116 C       7      r7    -0.0013
   8125 C           17.3575    12.4500     6.4343 C       7      r7    -0.0008
   8126 C           17.4313    15.8892     3.0600 C       0      r0    -0.0002
   8127 C           17.2115    11.7794     3.9249 C       0      r0    -0.0001
   8128 C           17.4971    12.7683     3.0105 C       5      r5    -0.0017
   8129 C           18.7636    15.8228     3.7979 C       7      r7    -0.0047
   8130 C           18.8196    13.5248     2.8711 C       5      r5     0.0017
   8131 C           19.4412    14.5544     3.7296 C       7      r7     0.0078
   8132 C           20.7449    14.1464     4.2364 C       7      r7    -0.0409
   8133 C           21.0866    15.6399     6.1981 C       7      r7    -0.0341
   8134 C           21.4185    12.9143     3.8765 C       5      r5    -0.0363
   8135 C           21.3600    14.5413     5.4621 C       7      r7     0.2332
   8136 C           21.4107    12.2853     2.5191 C       7      r7     0.0067
   8137 C           22.5222    12.7265     4.7692 C       5      r5     0.2297
   8138 O           22.5583    13.7294     5.9158 O       5      r5    -0.4904
   8139 C           23.4412    11.6872     4.5974 C       6      r6    -0.0463
   8140 C           24.2663    14.3447     2.7896 C       0      r0     0.0018
   8141 C           24.5933    11.4782     5.4841 C       7      r7     0.0277
   8142 C           24.8678    15.2986     3.5528 C       6      r6     0.0066
   8143 C          -25.2346    16.7500     2.8454 C       6      r6    -0.0019
   8144 C          -24.9769    16.5214     5.7829 C       7      r7     0.0044
   8145 C          -24.8385    20.3313     5.0900 C       7      r7    -0.0027
   8146 C          -24.5456    17.9779     3.6735 C       6      r6     0.0006
   8147 C          -24.4153    17.8290     5.0079 C       7      r7    -0.0012
   8148 C          -24.2271    19.1023     5.7339 C       7      r7    -0.0013
   8149 C          -24.3627    19.2240     2.9788 C       6      r6    -0.0000
   8150 C          -22.7261    16.9127     6.7036 C       7      r7     0.0004
   8151 C          -21.7816    16.1990     5.8044 C       7      r7    -0.0013
   8152 C          -20.9356    16.1665     2.6239 C       7      r7    -0.0005
   8153 C          -20.7551    17.0526     5.0548 C       7      r7    -0.0005
   8154 C          -20.2960    17.0224     3.6363 C       7      r7    -0.0011
   8155 C          -19.8454    17.8478     5.8263 C       6      r6     0.0005
   8156 C          -19.5325    18.0893     2.9727 C       7      r7    -0.0003
   8157 C          -19.2800    20.3819     6.1331 C       5      r5    -0.0001
   8158 C          -19.0703    19.2570     3.7410 C       7      r7    -0.0021
   8159 C          -18.9420    19.0555     5.2574 C       5      r5    -0.0001
   8160 C          -17.4739    18.9195     5.7922 C       5      r5     0.0005
   8161 C          -16.8657    16.5402     5.2340 C       5      r5     0.0056
   8162 C          -16.5465    17.9583     5.1759 C       6      r6     0.0156
   8163 C          -15.8062    16.0086     3.2157 C       6      r6     0.0027
   8164 C          -15.5316    18.3100     4.1894 C       5      r5     0.0303
   8165 C          -15.2777    17.3062     3.1669 C       5      r5    -0.0006
   8166 C          -14.8267    19.4724     3.6942 C       5      r5     0.0081
   8167 C          -14.1321    19.1046     2.4836 C       5      r5     0.0033
   8168 O          -13.8193    17.7485     6.6317 O       6      r6    -0.4911
   8169 C          -13.2860    16.3644     6.3034 C       6      r6     0.2505
   8170 C          -12.3574    16.0790     5.3479 C       0      r0    -0.0428
   8171 C          -10.5649    17.1890     2.4136 C       0      r0     0.0031
   8172 C          -10.4719    16.8758     3.7714 C       0      r0     0.0052
   8173 C          -10.2362    20.3328     5.0848 C       7      r7     0.0067
   8174 C           -9.4922    20.2149     3.8040 C       7      r7    -0.0005
   8175 C           -9.5089    19.7880     6.2131 C       7      r7    -0.0011
   8176 C           -9.3173    16.6057     6.1641 C       5      r5     0.0016
   8177 C           -9.2673    16.8199     4.6800 C       0      r0     0.0017
   8178 C           -8.2435    19.5041     3.8936 C       7      r7     0.0024
   8179 C           -8.0233    16.9835     3.8919 C       0      r0     0.0003
   8180 C           -7.8782    18.2787     3.1567 C       6      r6    -0.0007
   8181 C           -7.0738    20.1179     4.6195 C       7      r7    -0.0012
   8182 C           -7.1040    15.9173     3.5717 C       0      r0    -0.0014
   8183 C           -6.1994    16.5650     6.4986 C       7      r7     0.0001
   8184 C           -5.9933    20.4039     3.7179 C       7      r7    -0.0032
   8185 C           -5.9458    19.7372     2.4109 C       7      r7    -0.0033
   8186 C           -5.7249    16.3811     3.9047 C       5      r5    -0.0012
   8187 C           -5.5265    16.9569     5.2511 C       7      r7    -0.0010
   8188 C           -4.6938    17.0265     3.1059 C       5      r5    -0.0019
   8189 C           -4.3089    17.7086     5.4212 C       7      r7    -0.0025
   8190 C           -3.9652    18.7756     6.3994 C       7      r7    -0.0030
   8191 C           -3.8826    17.8018     4.0411 C       7      r7    -0.0025
   8192 C           -2.9249    19.8250     6.2365 C       7      r7    -0.0015
   8193 C           -2.5872    18.3317     3.6294 C       7      r7     0.0014
   8194 C           -1.9706    15.9570     6.6907 C       5      r5    -0.0027
   8195 C           -1.9405    20.0017     5.1710 C       7      r7    -0.0043
   8196 C           -1.7667    16.1730     5.2244 C       7      r7    -0.0025
   8197 C           -1.5130    18.6936     4.6489 C       7      r7     0.0164
   8198 C           -1.0470    17.4736     5.2725 C       7      r7     0.0066
   8199 C           -0.0876    17.4867     6.5199 C       7      r7    -0.0009
   8200 C            0.9200    16.4314     6.1503 C       7      r7     0.0032
   8201 O            1.3765    19.8027     2.9818 O       6      r6    -0.5096
   8202 C            2.1213    16.7500     6.7540 C       5      r5    -0.0006
   8203 C            2.7106    19.1353     3.3069 C       5      r5     0.2493
   8204 C            2.8575    20.2914     5.3809 C       7      r7     0.0431
   8205 C            3.2759    15.8623     6.6205 C       6      r6    -0.0008
   8206 C            3.1554    20.1848     6.6932 C       7      r7    -0.0103
   8207 C            3.4722    19.3547     4.4386 C       7      r7    -0.0671
   8208 C            3.4736    18.3086     2.4242 C       7      r7    -0.0492
   8209 C            4.7945    18.6265     4.3660 C       7      r7     0.0067
   8210 C            4.8759    18.1626     2.9525 C       7      r7     0.0010
   8211 C            5.5586    18.4009     5.5703 C       7      r7     0.0001
   8212 C            6.9409    17.7843     5.6405 C       6      r6    -0.0005
   8213 C            7.3759    16.9731     4.4698 C       6      r6    -0.0005
   8214 C            7.3253    18.6304     2.4760 C       7      r7    -0.0003
   8215 C            7.8087    20.0603     2.3712 C       7      r7    -0.0011
   8216 C            7.9636    17.6619     3.3409 C       7      r7    -0.0000
   8217 C            8.0960    17.7374     6.5668 C       7      r7     0.0001
   8218 C            8.9305    16.5284     6.6623 C       7      r7     0.0001
   8219 C            9.4981    17.4079     3.1746 C       7      r7     0.0006
   8220 C           10.2468    16.0950     3.4107 C       7      r7     0.0006
   8221 C           10.3572    19.4904     4.8892 C       5      r5     0.0007
   8222 C           10.3960    18.2834     4.1838 C       5      r5     0.0003
   8223 C           11.6336    16.4366     3.6330 C       7      r7    -0.0004
   8224 C           11.6470    17.7091     4.3040 C       7      r7    -0.0002
   8225 C           11.7246    19.6273     5.5526 C       7      r7    -0.0005
   8226 C           12.5410    18.5075     5.1874 C       7      r7    -0.0005
   8227 C           13.8221    18.0078     5.6917 C       7      r7     0.0014
   8228 C           14.0552    15.9393     3.9857 C       7      r7     0.0014
   8229 C           14.4485    16.9946     4.8969 C       7      r7     0.0005
   8230 C           14.9198    18.9307     6.1642 C       7      r7     0.0005
   8231 C           14.7929    20.1287     5.3149 C       7      r7     0.0020
   8232 C           15.1097    19.8090     3.8983 C       7      r7     0.0023
   8233 C           15.8252    17.5590     4.5923 C       7      r7    -0.0008
   8234 C           15.8065    18.5884     3.5158 C       7      r7     0.0015
   8235 C           16.2244    18.0211     2.2242 C       6      r6     0.0023
   8236 C           16.9154    17.1254     5.2996 C       7      r7    -0.0014
   8237 C           18.1649    17.9331     5.0889 C       7      r7    -0.0013
   8238 C           18.2681    19.1902     5.8364 C       6      r6    -0.0017
   8239 C           19.1015    16.8505     4.7704 C       7      r7    -0.0005
   8240 C           19.5766    19.8506     5.8032 C       6      r6    -0.0017
   8241 C           19.9116    20.2096     3.1758 C       5      r5    -0.0009
   8242 C           19.8420    16.3595     5.9354 C       7      r7    -0.0053
   8243 C           20.3362    19.8263     4.5146 C       6      r6    -0.0019
   8244 C           21.3546    18.8203     4.6070 C       5      r5    -0.0002
   8245 C           21.8352    19.4151     6.8590 C       6      r6     0.0047
   8246 C           21.8315    18.1761     3.3811 C       5      r5    -0.0017
   8247 C           22.3424    18.7257     5.6443 C       5      r5    -0.0032
   8248 C           23.0059    17.4416     3.7157 C       5      r5     0.0026
   8249 C           23.1763    17.5707     5.2101 C       5      r5     0.0040
   8250 C           23.8585    17.3252     2.5479 C       6      r6    -0.0005
   8251 C           23.9514    16.8029     6.1030 C       6      r6     0.0046
   8252 C          -24.5397    20.4805     3.7049 C       6      r6     0.0007
   8253 C          -24.2265    21.9114     3.3695 C       7      r7     0.0012
   8254 C          -23.5356    24.2528     3.9050 C       7      r7    -0.0003
   8255 C          -23.4542    22.8401     4.2252 C       7      r7    -0.0006
   8256 C          -22.0411    22.6339     4.5513 C       7      r7     0.0008
   8257 C          -21.4846    23.9250     4.9441 C       5      r5     0.0006
   8258 C          -21.3501    21.8874     3.4474 C       7      r7     0.0015
   8259 C          -20.1633    24.4482     5.3656 C       7      r7     0.0010
   8260 C          -20.1623    21.4582     4.1250 C       6      r6    -0.0001
   8261 C          -19.8101    21.5455     5.5424 C       5      r5    -0.0014
   8262 C          -19.5145    24.0045     6.5914 C       7      r7     0.0002
   8263 C          -19.3248    22.5990     6.6013 C       5      r5    -0.0010
   8264 C          -19.4570    20.5137     3.2032 C       7      r7    -0.0012
   8265 C          -14.9858    21.5865     5.6120 C       5      r5     0.0038
   8266 C          -14.5045    22.9366     5.2715 C       7      r7    -0.0002
   8267 C          -14.5975    20.7649     4.4480 C       5      r5     0.0156
   8268 C          -14.3399    23.9068     6.3811 C       7      r7     0.0006
   8269 C          -13.9848    23.0605     3.9303 C       7      r7     0.0004
   8270 C          -13.6251    21.6433     3.7830 C       5      r5    -0.0011
   8271 C          -13.2084    24.1399     3.2218 C       7      r7    -0.0015
   8272 C          -13.2924    24.8981     6.2199 C       7      r7    -0.0023
   8273 C          -12.1657    21.2907     4.0567 C       6      r6     0.0073
   8274 C          -12.1611    24.6784     5.2930 C       7      r7    -0.0010
   8275 C          -12.0610    24.8365     3.8350 C       7      r7    -0.0031
   8276 C          -11.5239    20.8897     2.8568 C       6      r6     0.0016
   8277 C          -11.4206    21.1894     5.2928 C       7      r7     0.0105
   8278 C          -11.2477    21.8569     6.6262 C       7      r7     0.0033
   8279 C          -10.8327    24.1602     5.6006 C       5      r5    -0.0015
   8280 C          -10.8535    23.2608     6.7257 C       6      r6    -0.0021
   8281 C          -10.6590    24.8600     3.3875 C       5      r5    -0.0029
   8282 C          -10.1187    20.6320     2.5327 C       6      r6     0.0000
   8283 C           -9.7895    24.4733     4.5136 C       5      r5    -0.0030
   8284 C           -8.3988    20.6467     6.6666 C       7      r7    -0.0013
   8285 C           -8.4275    24.8752     4.7067 C       7      r7    -0.0019
   8286 C           -7.2890    20.8510     5.8676 C       7      r7    -0.0006
   8287 C           -7.4353    24.4898     5.9027 C       7      r7    -0.0009
   8288 C           -6.9738    23.2754     6.1162 C       0      r0    -0.0040
   8289 C           -6.4087    21.9528     6.4974 C       5      r5    -0.0027
   8290 C           -5.0761    21.6506     5.7963 C       6      r6    -0.0014
   8291 C           -4.9408    21.1263     4.4510 C       7      r7    -0.0046
   8292 C           -4.5764    24.4044     3.9485 C       6      r6     0.0032
   8293 C           -4.7022    23.5008     2.7442 C       6      r6     0.0127
   8294 C           -4.0535    22.2200     2.5389 C       7      r7     0.0376
   8295 C           -3.8070    24.4577     5.2186 C       5      r5    -0.0073
   8296 C           -3.7368    22.0670     6.2580 C       0      r0     0.0000
   8297 C           -3.6658    21.3951     3.7149 C       7      r7     0.0018
   8298 C           -3.4309    23.5277     6.3078 C       5      r5    -0.0017
   8299 C           -2.3008    21.0192     4.1029 C       7      r7    -0.0069
   8300 C           -1.7096    24.5901     3.4818 C       5      r5     0.2659
   8301 C           -1.3020    21.0492     3.0362 C       7      r7     0.0691
   8302 C           -1.0552    23.9236     4.5176 C       5      r5    -0.0306
   8303 C           -0.6578    24.9055     5.5475 C       5      r5    -0.0021
   8304 C           -0.3197    22.7345     4.7106 C       5      r5     0.0425
   8305 C           -0.1325    21.5956     3.7193 C       6      r6    -0.0015
   8306 C            0.1616    24.3070     6.5447 C       7      r7     0.0013
   8307 C            0.4699    23.0199     5.8609 C       7      r7    -0.0142
   8308 C            1.0780    20.9624     3.8958 C       6      r6     0.2547
   8309 O            1.5496    23.6043     2.4567 O       5      r5    -0.4745
   8310 C            1.6177    22.2360     6.1384 C       7      r7     0.0131
   8311 C            1.8161    21.1853     5.0885 C       6      r6    -0.0636
   8312 C            2.1589    24.3371     3.6179 C       7      r7     0.2309
   8313 C            3.3266    23.7751     4.1605 C       7      r7    -0.0431
   8314 C            3.6230    22.6736     3.2707 C       7      r7    -0.0413
   8315 C            4.2805    24.2704     5.1475 C       7      r7     0.0062
   8316 C            4.9071    21.9993     3.5020 C       7      r7     0.0106
   8317 C            5.4985    23.4346     5.3197 C       6      r6    -0.0021
   8318 C            5.6519    21.2946     2.4997 C       7      r7    -0.0034
   8319 C            5.7963    22.1733     4.6248 C       5      r5    -0.0023
   8320 C            6.6705    24.0710     5.8566 C       7      r7    -0.0024
   8321 C            6.9423    21.2291     4.5773 C       5      r5    -0.0012
   8322 C            6.9425    21.0145     3.1093 C       5      r5    -0.0002
   8323 C            7.6191    23.1752     6.5754 C       7      r7    -0.0016
   8324 C            7.9960    20.6207     5.4234 C       0      r0    -0.0003
   8325 C            9.0405    23.4412     6.3110 C       7      r7     0.0014
   8326 C            9.3713    20.5745     4.8491 C       0      r0     0.0016
   8327 C            9.4577    23.2721     4.9432 C       5      r5    -0.0003
   8328 C            9.8236    21.9063     4.3938 C       5      r5     0.0006
   8329 C           10.0676    24.3679     4.2025 C       5      r5    -0.0004
   8330 C           10.5427    22.2079     3.2103 C       5      r5    -0.0002
   8331 C           10.9493    23.6796     3.3665 C       5      r5     0.0011
   8332 C           11.9102    23.1883     6.6031 C       6      r6     0.0002
   8333 C           11.7859    24.4379     2.4859 C       6      r6    -0.0007
   8334 C           12.4272    20.7358     6.1593 C       7      r7    -0.0001
   8335 C           13.1270    23.5053     5.8664 C       6      r6     0.0004
   8336 C           13.7249    21.1036     5.4954 C       7      r7     0.0003
   8337 C           13.7973    22.4755     5.0381 C       7      r7    -0.0001
   8338 C           14.2533    24.2602     6.5530 C       6      r6     0.0016
   8339 C           14.9292    22.9488     4.1458 C       7      r7     0.0003
   8340 C           14.8821    20.7107     2.7938 C       7      r7    -0.0001
   8341 C           15.0175    22.1693     2.8832 C       7      r7    -0.0015
   8342 C           15.6973    24.1221     4.4981 C       7      r7     0.0009
   8343 C           16.7699    24.7295     3.6381 C       7      r7     0.0001
   8344 C           17.7372    22.1171     6.4252 C       6      r6     0.0004
   8345 C           18.0179    21.8307     3.7098 C       6      r6     0.0021
   8346 C           18.4134    22.3832     4.9501 C       6      r6     0.0002
   8347 C           19.2167    21.5055     2.7156 C       5      r5     0.0009
   8348 C           19.5197    23.3759     4.8706 C       6      r6     0.0001
   8349 C           19.9700    24.1537     5.9699 C       6      r6    -0.0007
   8350 C           20.1888    23.6164     3.5424 C       6      r6     0.0008
   8351 C           20.4017    22.5895     2.5962 C       6      r6     0.0014
   8352 C           22.4734    24.5406     5.6701 C       0      r0    -0.0022
   8353 C           22.8533    24.2305     4.3259 C       0      r0    -0.0007
   8354 C           22.9222    22.4843     2.3884 C       5      r5     0.0016
   8355 C           23.2810    22.8416     3.8281 C       0      r0     0.0006
   8356 C           24.0440    22.1346     4.7470 C       0      r0    -0.0030
   8357 C           24.8258    21.4005     5.7101 C       7      r7    -0.0039
   8358 C          -24.5423   -21.4902     9.3541 C       7      r7     0.0058
   8359 C          -24.5476   -21.3151     7.8970 C       7      r7    -0.0011
   8360 C          -23.6911   -24.6003     8.9745 C       7      r7    -0.0415
   8361 C          -23.6504   -24.3888     7.6192 C       7      r7     0.0067
   8362 C          -23.3054   -21.5535    10.2372 C       7      r7     0.0016
   8363 C          -22.5970   -22.8356    10.5438 C       7      r7     0.0096
   8364 C          -22.4769   -24.0227     9.6459 C       7      r7     0.0326
   8365 C          -21.3282   -23.0672     7.2750 C       7      r7    -0.0009
   8366 C          -21.1279   -24.4234     9.2874 C       7      r7    -0.0087
   8367 C          -20.5016   -23.9912     8.0674 C       7      r7     0.0013
   8368 C          -19.4795   -20.7174     9.3990 C       5      r5    -0.0024
   8369 C          -19.3385   -24.9458     7.8276 C       7      r7     0.0000
   8370 C          -19.3411   -21.5552    10.5947 C       5      r5    -0.0027
   8371 C          -18.9179   -20.8153     8.0336 C       7      r7    -0.0017
   8372 C          -18.8146   -22.8782    10.9234 C       5      r5    -0.0025
   8373 C          -18.0208   -24.1117     7.6336 C       7      r7    -0.0010
   8374 C          -18.0365   -23.8446    10.2109 C       5      r5    -0.0013
   8375 C          -17.4908   -23.5328     8.8354 C       7      r7    -0.0018
   8376 C          -16.5738   -21.3043     7.6002 C       7      r7     0.0013
   8377 C          -16.0243   -23.1568     8.8530 C       7      r7     0.0011
   8378 C          -15.5417   -21.8964     8.4393 C       7      r7     0.0011
   8379 C          -14.8905   -24.0876     8.8962 C       7      r7     0.0012
   8380 C          -14.1581   -22.0697    11.3159 C       6      r6     0.0022
   8381 C          -13.9791   -21.8639     8.4764 C       7      r7    -0.0011
   8382 C          -13.7981   -23.3569     8.2895 C       7      r7    -0.0008
   8383 C          -13.7465   -21.5452    10.0385 C       5      r5    -0.0001
   8384 C          -13.0411   -24.0113     7.2704 C       7      r7    -0.0023
   8385 C          -12.7733   -21.0341     7.7712 C       7      r7     0.0026
   8386 C          -12.3639   -21.1778    10.0590 C       7      r7    -0.0021
   8387 C          -11.7498   -20.8495     8.7588 C       7      r7    -0.0017
   8388 C          -11.6288   -23.4604     7.2172 C       7      r7    -0.0020
   8389 C          -10.5916   -24.3437     7.6079 C       6      r6    -0.0015
   8390 C          -10.1951   -20.6095     8.6912 C       7      r7     0.0045
   8391 C           -9.4778   -22.5994    11.1677 C       7      r7    -0.0007
   8392 C           -9.3775   -23.7790     6.9903 C       7      r7    -0.0009
   8393 C           -8.9501   -22.8049     9.6659 C       7      r7     0.0033
   8394 C           -9.0330   -21.6441     8.8343 C       7      r7    -0.0025
   8395 C           -8.3992   -20.4951     7.0798 C       5      r5     0.2282
   8396 C           -8.1647   -24.0648     7.7363 C       7      r7     0.0043
   8397 C           -8.2251   -23.9896     9.2814 C       7      r7     0.0003
   8398 C           -7.8565   -21.1945     8.1032 C       5      r5    -0.0420
   8399 C           -7.1791   -24.8010     9.8811 C       7      r7    -0.0006
   8400 C           -7.0022   -24.4379     6.9666 C       7      r7     0.0011
   8401 C           -6.7213   -24.2347    11.1380 C       7      r7    -0.0008
   8402 C           -6.3087   -21.2970     8.2846 C       0      r0     0.0213
   8403 C           -5.8961   -23.5187     7.2216 C       7      r7     0.0074
   8404 C           -5.6782   -22.6675     8.3726 C       7      r7    -0.0005
   8405 C           -4.5240   -22.1623    10.4392 C       7      r7    -0.0003
   8406 C           -4.4427   -22.8301     9.1984 C       7      r7    -0.0006
   8407 C           -3.4747   -21.4582    11.1585 C       7      r7    -0.0018
   8408 C           -3.3448   -24.3658     7.3953 C       7      r7    -0.0022
   8409 C           -3.2425   -23.4861     8.5833 C       7      r7    -0.0011
   8410 C           -2.2320   -22.1747    11.3985 C       7      r7     0.0013
   8411 C           -1.9142   -23.4696     9.2119 C       7      r7    -0.0018
   8412 C           -1.6941   -23.2810    10.6637 C       7      r7     0.0012
   8413 C           -1.1900   -20.7416     7.1471 C       7      r7    -0.0048
   8414 C           -0.6986   -23.0893     8.3628 C       6      r6    -0.0033
   8415 C           -0.5184   -21.6219     8.1688 C       7      r7    -0.0037
   8416 C            0.4985   -21.0629     9.1033 C       7      r7    -0.0014
   8417 C            0.6029   -23.8286     8.2778 C       6      r6     0.0016
   8418 C            1.7756   -22.9117     8.2239 C       6      r6     0.0078
   8419 C            1.8601   -21.6254     8.9987 C       6      r6     0.0033
   8420 C            2.8114   -22.8455     7.2736 C       6      r6    -0.0032
   8421 C            3.0234   -20.8688     9.4650 C       6      r6     0.0210
   8422 C            4.2399   -21.0041     8.7644 C       6      r6     0.0278
   8423 C            4.1931   -22.0803     7.6375 C       6      r6     0.0183
   8424 C            5.0288   -23.3865     7.9023 C       6      r6    -0.0399
   8425 C            5.3508   -23.8349     9.1558 C       5      r5     0.2154
   8426 O            5.2646   -22.9720    10.4744 O       5      r5    -0.4814
   8427 C            7.6342   -22.3302     7.0837 C       7      r7     0.0001
   8428 C            7.8052   -23.7716     6.8819 C       7      r7     0.0006
   8429 C            7.9132   -21.9072     8.4443 C       7      r7     0.0090
   8430 C            8.3805   -22.7872     9.4227 C       5      r5     0.0107
   8431 C            8.5160   -22.1395    10.8072 C       5      r5     0.0139
   8432 C            8.3944   -20.7352    10.5323 C       7      r7     0.0080
   8433 C            8.7875   -24.5370     7.7227 C       7      r7     0.0002
   8434 C            8.9017   -24.1300     9.1271 C       7      r7    -0.0008
   8435 C            9.6872   -24.6170    10.2910 C       7      r7    -0.0002
   8436 C           10.7326   -21.0373     7.6464 C       7      r7    -0.0012
   8437 C           11.1497   -24.7330    10.0273 C       7      r7    -0.0018
   8438 C           11.9539   -21.8417     7.4853 C       7      r7    -0.0004
   8439 C           12.1577   -24.6366    11.0652 C       6      r6    -0.0006
   8440 C           12.9941   -21.4705     8.4055 C       7      r7    -0.0007
   8441 C           12.9974   -23.3828    11.0918 C       0      r0    -0.0001
   8442 C           13.9755   -22.5058     8.7293 C       7      r7     0.0013
   8443 C           14.1141   -23.2095    10.0126 C       6      r6     0.0011
   8444 C           14.8312   -22.5527     7.4364 C       7      r7     0.0001
   8445 C           15.3444   -23.9421    10.0312 C       6      r6     0.0004
   8446 C           15.7877   -23.6635     7.5153 C       7      r7     0.0008
   8447 C           15.6838   -24.9069    11.0919 C       0      r0     0.0001
   8448 C           16.0227   -21.3099     7.3217 C       7      r7    -0.0007
   8449 C           16.3363   -23.8908     8.9056 C       6      r6     0.0006
   8450 C           17.4976   -21.7037     6.9783 C       7      r7    -0.0005
   8451 C           17.5696   -23.4759     9.3894 C       0      r0    -0.0001
   8452 C           18.3420   -20.6066     7.2715 C       5      r5    -0.0009
   8453 C           18.6745   -23.1151    10.0074 C       0      r0    -0.0010
   8454 C           19.9119   -22.8746     9.1974 C       7      r7    -0.0007
   8455 C           20.1482   -20.4553    10.3111 C       6      r6    -0.0009
   8456 C           20.3082   -23.8895     8.2309 C       7      r7    -0.0008
   8457 C           20.5283   -21.5724     9.4348 C       7      r7    -0.0008
   8458 C           21.0994   -23.7401     6.9492 C       7      r7    -0.0005
   8459 C           21.6507   -21.1834     8.5668 C       7      r7    -0.0006
   8460 C           22.5336   -21.8956     7.7157 C       7      r7     0.0003
   8461 C           23.6313   -21.0934     7.6019 C       7      r7    -0.0003
   8462 C           24.7879   -21.5535     7.0423 C       7      r7     0.0001
   8463 C           24.8886   -20.8880    10.1617 C       7      r7     0.0046
   8464 C          -24.9349   -17.9077     7.9194 C       6      r6     0.0003
   8465 C          -24.7747   -18.9223     8.9426 C       7      r7    -0.0000
   8466 C          -24.1500   -16.6537     8.0457 C       6      r6     0.0014
   8467 C          -23.4134   -16.4486     9.3029 C       6      r6     0.0014
   8468 C          -23.5942   -20.3206     7.3478 C       7      r7     0.0009
   8469 C          -23.4126   -19.1560     9.5835 C       7      r7    -0.0004
   8470 C          -23.0722   -17.6607     9.9559 C       6      r6     0.0010
   8471 C          -22.9537   -20.2660    10.6787 C       7      r7    -0.0028
   8472 C          -22.7367   -19.6199     8.2239 C       7      r7    -0.0003
   8473 C          -22.6633   -17.4355    11.2903 C       7      r7    -0.0003
   8474 C          -21.6793   -18.8301     7.6656 C       5      r5    -0.0011
   8475 C          -20.7869   -17.8659     8.3658 C       7      r7     0.0003
   8476 C          -20.6346   -16.7989     7.4228 C       7      r7    -0.0003
   8477 C          -19.7170   -18.0833     9.3160 C       7      r7     0.0008
   8478 C          -19.5334   -19.3718    10.0047 C       5      r5    -0.0017
   8479 C          -19.2053   -19.3319    11.4222 C       7      r7    -0.0012
   8480 C          -18.6481   -15.8209     9.3430 C       7      r7     0.0002
   8481 C          -18.5224   -17.2568     9.1170 C       7      r7    -0.0002
   8482 C          -17.5359   -20.3007     8.0854 C       7      r7     0.0011
   8483 C          -17.4779   -17.6067     8.1644 C       7      r7     0.0020
   8484 C          -17.3141   -18.9283     7.5209 C       7      r7    -0.0057
   8485 C          -16.9869   -16.6777     7.1276 C       7      r7     0.0012
   8486 C          -13.7583   -18.0039    10.7397 C       5      r5    -0.0004
   8487 C          -13.7045   -16.7352    10.0030 C       6      r6    -0.0016
   8488 C          -12.8741   -16.6599     8.8251 C       6      r6    -0.0013
   8489 C          -12.3928   -18.5613    10.7837 C       7      r7    -0.0022
   8490 C          -11.7074   -17.5789     8.7771 C       6      r6    -0.0043
   8491 C          -11.3186   -18.4471     9.8242 C       7      r7    -0.0016
   8492 C          -10.6330   -17.4278     7.7665 C       6      r6     0.0006
   8493 C           -9.9899   -19.2681     9.6687 C       7      r7    -0.0017
   8494 C           -9.7311   -20.2110     7.2998 C       5      r5    -0.0503
   8495 C           -9.5925   -19.9181    11.0186 C       7      r7    -0.0008
   8496 C           -9.2335   -17.2516     8.2218 C       6      r6     0.0007
   8497 C           -8.9332   -18.2420     9.2364 C       6      r6     0.0007
   8498 C           -8.5453   -15.9687     7.7137 C       0      r0     0.0200
   8499 C           -7.9857   -18.0579    10.3240 C       6      r6     0.0005
   8500 C           -6.7407   -17.2240    10.2058 C       7      r7    -0.0018
   8501 C           -6.1457   -16.8451     7.2895 C       7      r7     0.0051
   8502 C           -5.6108   -20.1804     7.8433 C       0      r0     0.0283
   8503 C           -5.3738   -17.4024     9.6688 C       7      r7    -0.0017
   8504 C           -5.4155   -17.7166     8.2166 C       7      r7    -0.0062
   8505 C           -5.0154   -18.9745     7.4066 C       5      r5     0.0068
   8506 C           -4.2103   -17.1325    10.6408 C       0      r0    -0.0033
   8507 C           -3.8512   -15.8129    11.2186 C       5      r5    -0.0022
   8508 C           -3.5313   -18.1989    11.3265 C       6      r6    -0.0038
   8509 C           -1.9777   -17.3038     6.9811 C       5      r5     0.0160
   8510 C           -1.4088   -17.2275     8.3304 C       5      r5     0.0034
   8511 C           -1.2829   -19.3482     7.4868 C       7      r7    -0.0007
   8512 C           -1.1888   -18.6093     8.6936 C       7      r7    -0.0044
   8513 C           -0.9947   -18.3098    11.1204 C       6      r6    -0.0019
   8514 C           -0.8256   -19.0808     9.9445 C       7      r7    -0.0030
   8515 C            0.3521   -19.8546     9.8812 C       7      r7     0.0017
   8516 C            1.2492   -17.7567    10.6783 C       6      r6    -0.0007
   8517 C            1.4518   -19.0396    10.1254 C       6      r6    -0.0014
   8518 C            2.0509   -15.9923     7.8608 C       5      r5    -0.0315
   8519 C            1.9841   -16.5866    10.4634 C       6      r6    -0.0020
   8520 C            2.7432   -17.1959     8.2161 C       5      r5     0.0031
   8521 C            2.8138   -19.5426    10.0652 C       6      r6    -0.0007
   8522 C            3.1118   -17.7395     6.9377 C       5      r5     0.0149
   8523 C            3.3210   -17.1428     9.6933 C       6      r6    -0.0021
   8524 C            3.8765   -18.5364    10.1254 C       6      r6    -0.0011
   8525 C            4.1063   -18.7627     6.8467 C       0      r0    -0.0071
   8526 C            4.6133   -16.3015     9.6662 C       6      r6     0.0062
   8527 C            5.2911   -18.8798    10.0174 C       6      r6     0.0023
   8528 C            5.3104   -20.1513     9.1722 C       6      r6     0.0247
   8529 C            5.9686   -16.5323    10.1405 C       6      r6    -0.0012
   8530 C            6.4302   -17.8885    10.2971 C       6      r6     0.0017
   8531 C            6.5827   -19.2477     7.2855 C       7      r7    -0.0056
   8532 C            6.5908   -19.9862     8.4760 C       7      r7     0.0031
   8533 C            7.9109   -18.1629    10.3748 C       7      r7     0.0004
   8534 C            7.9536   -20.5227     9.1048 C       7      r7     0.0054
   8535 C            8.8741   -18.1757     9.2293 C       7      r7     0.0018
   8536 C            9.1167   -19.4987     8.4880 C       7      r7    -0.0026
   8537 C            9.3561   -19.8980    11.3168 C       7      r7    -0.0028
   8538 C           10.1150   -17.4466     9.3810 C       7      r7    -0.0004
   8539 C           10.5152   -16.7177    10.5592 C       7      r7    -0.0009
   8540 C           10.4802   -20.1415     8.7609 C       7      r7    -0.0019
   8541 C           10.8685   -19.9346    11.2762 C       7      r7    -0.0007
   8542 C           11.0697   -16.9777     7.1888 C       5      r5    -0.0019
   8543 C           11.3353   -17.2837     8.5240 C       5      r5    -0.0009
   8544 C           11.2957   -19.7861     9.9076 C       7      r7    -0.0001
   8545 C           12.7780   -17.5915     8.9098 C       5      r5    -0.0005
   8546 C           12.6602   -19.1398     9.5251 C       7      r7    -0.0001
   8547 C           13.2808   -17.9001     7.4010 C       5      r5     0.0008
   8548 C           13.1698   -19.3832     7.1539 C       5      r5    -0.0009
   8549 C           13.5869   -16.4422     9.5689 C       6      r6     0.0005
   8550 C           13.5636   -20.0061     8.4418 C       7      r7    -0.0007
   8551 C           13.5860   -19.1988    10.6127 C       5      r5     0.0009
   8552 C           14.8085   -17.5945     7.2115 C       5      r5     0.0008
   8553 C           14.9908   -19.2109    10.2693 C       5      r5    -0.0001
   8554 C           15.0981   -19.7902     8.9780 C       7      r7    -0.0005
   8555 C           15.5389   -16.6424     7.8800 C       5      r5     0.0002
   8556 C           16.2756   -20.2143     8.3300 C       7      r7    -0.0005
   8557 C           16.8827   -16.5541     7.1890 C       7      r7    -0.0006
   8558 C           17.6760   -16.5921    10.1235 C       0      r0    -0.0003
   8559 C           17.8125   -17.2584    11.3396 C       0      r0     0.0008
   8560 C           17.7058   -19.7662     8.2397 C       5      r5    -0.0009
   8561 C           18.2479   -16.7193     7.7292 C       7      r7    -0.0019
   8562 C           18.2127   -17.4033     9.0494 C       0      r0    -0.0005
   8563 C           18.5323   -18.8477     9.0890 C       0      r0    -0.0004
   8564 C           19.4769   -16.2498     7.1087 C       7      r7     0.0001
   8565 C           19.8945   -19.2814     9.4496 C       6      r6     0.0007
   8566 C           21.1264   -16.3149     9.1759 C       6      r6     0.0002
   8567 C           21.1795   -18.7572     8.8779 C       7      r7    -0.0004
   8568 C           21.8543   -17.5404     9.2987 C       7      r7     0.0013
   8569 C           22.0052   -19.8532     8.5420 C       7      r7    -0.0005
   8570 C           22.7825   -17.7046    10.4536 C       7      r7     0.0002
   8571 C           23.3922   -19.7646     7.9673 C       7      r7     0.0005
   8572 C           23.6740   -18.7587    10.4906 C       7      r7     0.0014
   8573 C           24.4565   -19.5986     9.3892 C       7      r7    -0.0013
   8574 C          -25.0364   -12.1160    10.2358 C       5      r5    -0.0008
   8575 C          -24.0249   -15.6934     6.9818 C       6      r6     0.0003
   8576 C          -24.0149   -12.5551     9.2371 C       0      r0    -0.0007
   8577 C          -23.9690   -14.2546     7.3480 C       6      r6     0.0013
   8578 C          -23.7621   -13.9594     8.7717 C       6      r6     0.0001
   8579 C          -23.4489   -15.0518     9.7499 C       6      r6     0.0002
   8580 C          -23.2868   -14.9239    11.1856 C       5      r5    -0.0005
   8581 C          -23.1384   -11.4453     8.8272 C       6      r6     0.0005
   8582 C          -22.4162   -11.4805     7.5720 C       6      r6     0.0023
   8583 C          -21.1136   -12.1085     7.5978 C       6      r6     0.0008
   8584 C          -20.4736   -12.0655     8.8523 C       6      r6     0.0018
   8585 C          -20.0738   -15.4668     7.5207 C       7      r7    -0.0016
   8586 C          -19.4511   -14.8099     8.6633 C       7      r7     0.0001
   8587 C          -19.1502   -12.1841     8.7532 C       5      r5     0.0006
   8588 C          -18.7200   -13.4954     8.7035 C       5      r5    -0.0004
   8589 C          -17.2948   -15.3490    11.1498 C       5      r5     0.0007
   8590 C          -17.2605   -15.3609     9.6897 C       7      r7    -0.0005
   8591 C          -17.3028   -13.3156     8.4508 C       5      r5    -0.0005
   8592 C          -16.8633   -15.2406     7.1639 C       7      r7    -0.0065
   8593 C          -16.8978   -11.9200     8.2453 C       5      r5    -0.0007
   8594 C          -16.6651   -14.6656     8.4868 C       7      r7     0.0011
   8595 C          -16.0462   -11.4315     7.1434 C       6      r6     0.0006
   8596 C          -15.3861   -12.6311    11.3169 C       5      r5    -0.0000
   8597 C          -14.6305   -11.6151     6.9884 C       7      r7    -0.0014
   8598 C          -14.2695   -12.9291    10.4429 C       5      r5     0.0006
   8599 C          -14.2330   -11.7274     9.5581 C       5      r5     0.0012
   8600 C          -14.0576   -15.4770    10.7137 C       6      r6     0.0014
   8601 C          -13.9118   -12.0537     8.1766 C       7      r7     0.0000
   8602 C          -13.7769   -14.2391    10.0051 C       6      r6     0.0010
   8603 C          -12.9599   -14.2273     8.7743 C       6      r6    -0.0040
   8604 C          -12.7382   -12.9239     8.0559 C       7      r7    -0.0040
   8605 C          -12.7800   -15.4436     8.0049 C       6      r6    -0.0053
   8606 C          -11.5355   -12.1672     8.1800 C       7      r7    -0.0018
   8607 C          -10.1597   -12.5295     8.7081 C       7      r7    -0.0027
   8608 C           -9.4078   -11.6894     9.3817 C       7      r7    -0.0021
   8609 C           -9.4064   -14.7637     7.4107 C       0      r0     0.0119
   8610 C           -9.0786   -13.4460     8.0156 C       7      r7    -0.0044
   8611 C           -8.1410   -11.7397    11.2615 C       7      r7     0.0007
   8612 C           -7.9019   -12.7237     7.8530 C       7      r7     0.0143
   8613 C           -7.2555   -12.8629    11.0087 C       7      r7     0.0003
   8614 C           -7.0780   -15.7459     7.7396 C       7      r7     0.0439
   8615 C           -6.9834   -11.7484     7.9425 C       7      r7    -0.0031
   8616 C           -7.0530   -15.8153    10.1580 C       7      r7    -0.0004
   8617 C           -6.7717   -15.0408     8.9382 C       7      r7    -0.0126
   8618 C           -6.0575   -12.8487    10.2334 C       7      r7    -0.0027
   8619 C           -5.8299   -13.9407     9.2583 C       7      r7     0.0035
   8620 C           -5.6913   -11.5723     7.1992 C       5      r5     0.0007
   8621 C           -5.2602   -11.5801    10.0360 C       7      r7    -0.0015
   8622 C           -4.4944   -13.9554     8.7098 C       6      r6    -0.0011
   8623 C           -4.1989   -14.4752     7.3421 C       7      r7    -0.0018
   8624 C           -3.8400   -11.9361    10.0017 C       6      r6    -0.0003
   8625 C           -3.4137   -13.2430     9.4641 C       6      r6    -0.0007
   8626 C           -2.9110   -15.1457     7.3038 C       7      r7     0.0030
   8627 C           -2.3695   -15.5654    11.3052 C       5      r5    -0.0022
   8628 C           -2.0771   -13.5980     9.1232 C       6      r6    -0.0015
   8629 C           -1.9178   -14.8676     8.3494 C       6      r6     0.0226
   8630 C           -1.3613   -12.2968     8.9878 C       6      r6     0.0014
   8631 C           -1.3209   -15.9626     9.0216 C       6      r6     0.0060
   8632 C           -1.1810   -15.9037    10.5137 C       5      r5    -0.0030
   8633 C           -1.0174   -12.1352     7.6058 C       0      r0     0.0102
   8634 C           -0.0496   -15.2851    11.2633 C       7      r7     0.0019
   8635 C            1.0181   -12.6665    11.0572 C       7      r7     0.0006
   8636 C            1.4048   -15.3565    10.8284 C       7      r7    -0.0020
   8637 C            1.5689   -13.9261    10.3663 C       7      r7    -0.0002
   8638 C            2.1026   -13.7017     9.0656 C       7      r7     0.0054
   8639 C            2.6190   -12.4548     8.4500 C       7      r7    -0.0029
   8640 C            2.7799   -14.9018     8.5292 C       7      r7     0.0347
   8641 C            3.5953   -12.7598     7.4322 C       7      r7     0.0247
   8642 C            4.0895   -15.0629     9.2589 C       7      r7     0.0041
   8643 C            4.8454   -13.0818     7.9919 C       7      r7     0.0247
   8644 C            5.0325   -13.9285     9.1278 C       7      r7     0.0058
   8645 C            5.9611   -12.3495     7.1546 C       7      r7     0.0061
   8646 C            6.2213   -13.9831     9.9364 C       7      r7    -0.0017
   8647 C            6.7974   -15.3148    10.1018 C       7      r7     0.0043
   8648 C            6.8893   -11.6500     9.3248 C       7      r7    -0.0005
   8649 C            7.1469   -12.9772     9.5306 C       7      r7     0.0005
   8650 C            7.3254   -13.0873     7.1672 C       7      r7     0.0136
   8651 C            7.8394   -13.3792     8.4077 C       7      r7     0.0012
   8652 C            8.1501   -15.2451    10.6329 C       7      r7    -0.0014
   8653 C            9.0594   -14.1714     8.5969 C       7      r7     0.0033
   8654 C            9.3511   -14.8559     9.8153 C       7      r7     0.0007
   8655 C            9.8952   -14.4878     7.4152 C       6      r6    -0.0003
   8656 C           10.1680   -11.9100    10.2016 C       5      r5    -0.0008
   8657 C           10.7134   -15.2936    10.1703 C       7      r7    -0.0002
   8658 C           10.6749   -12.1821     7.6463 C       0      r0    -0.0010
   8659 C           10.8742   -12.6501    11.2365 C       5      r5    -0.0005
   8660 C           11.1076   -12.0246     9.0555 C       5      r5     0.0002
   8661 C           11.0500   -13.6226     7.1816 C       0      r0    -0.0019
   8662 C           11.9892   -14.7106    10.5869 C       7      r7     0.0003
   8663 C           12.0740   -13.2469    10.7227 C       5      r5     0.0004
   8664 C           12.4846   -12.7075     9.3631 C       5      r5     0.0005
   8665 C           13.0380   -15.7715    10.7397 C       7      r7     0.0009
   8666 C           13.7031   -13.0505     8.7512 C       5      r5    -0.0003
   8667 C           13.9773   -12.8446     7.3574 C       5      r5    -0.0006
   8668 C           14.9440   -16.0991     9.1592 C       6      r6    -0.0006
   8669 C           15.1787   -13.4920     9.4157 C       5      r5    -0.0001
   8670 C           15.4319   -12.7547     7.1694 C       7      r7    -0.0012
   8671 C           15.5422   -12.6081    10.6552 C       7      r7     0.0013
   8672 C           15.7074   -14.9529     9.6970 C       6      r6    -0.0001
   8673 C           16.1307   -13.2382     8.2760 C       7      r7    -0.0007
   8674 C           16.5269   -11.5196    10.7003 C       7      r7     0.0011
   8675 C           17.0779   -15.1767     9.9055 C       6      r6     0.0005
   8676 C           17.5564   -13.2915     8.2888 C       7      r7    -0.0005
   8677 C           17.9811   -14.1284     9.3715 C       6      r6     0.0005
   8678 C           18.4958   -12.4244     7.7072 C       7      r7    -0.0005
   8679 C           19.3695   -14.0494     9.7618 C       6      r6     0.0005
   8680 C           19.7007   -12.2227     8.3960 C       6      r6    -0.0005
   8681 C           20.0266   -14.7623    10.8598 C       5      r5    -0.0005
   8682 C           20.3750   -13.2156     9.0728 C       6      r6    -0.0000
   8683 C           20.6380   -15.7563     7.8712 C       6      r6    -0.0002
   8684 C           20.8196   -15.8260    10.5390 C       5      r5     0.0003
   8685 C           21.3226   -14.5539     7.4421 C       6      r6     0.0005
   8686 C           21.6505   -13.5387     8.4393 C       6      r6    -0.0004
   8687 C           22.5606   -12.4555     7.9514 C       6      r6     0.0014
   8688 C           23.2556   -12.0391     9.0479 C       0      r0    -0.0004
   8689 C           23.9569   -11.7236    10.1913 C       5      r5    -0.0014
   8690 C          -24.8877    -7.3265     7.9196 C       5      r5    -0.0004
   8691 C          -24.3599    -7.3940    10.2301 C       7      r7    -0.0029
   8692 C          -23.4912    -7.2388     7.4823 C       5      r5    -0.0018
   8693 C          -23.0297    -8.1318     9.6794 C       6      r6    -0.0022
   8694 C          -22.5908    -9.3700    10.2631 C       6      r6    -0.0014
   8695 C          -22.4007    -7.6080     8.4687 C       6      r6    -0.0021
   8696 C          -22.1937   -10.6666     9.6652 C       6      r6    -0.0012
   8697 C          -20.9002   -11.2526     9.9396 C       6      r6     0.0000
   8698 C          -20.0670    -7.2613     7.4339 C       6      r6    -0.0000
   8699 C          -20.1045    -8.0072    11.0382 C       5      r5    -0.0041
   8700 C          -19.8504   -10.6357    10.7358 C       0      r0    -0.0005
   8701 C          -19.6035    -9.2274    10.4486 C       5      r5     0.0006
   8702 C          -19.3775    -6.8575    10.4222 C       5      r5     0.0119
   8703 C          -18.8699    -8.9022     9.2123 C       7      r7    -0.0022
   8704 C          -18.5538    -7.4885     9.4026 C       7      r7    -0.0021
   8705 C          -18.2543    -9.7731     8.2536 C       7      r7     0.0003
   8706 C          -18.0910   -11.1435     8.5506 C       5      r5     0.0008
   8707 C          -16.5125    -7.2826     7.7886 C       7      r7    -0.0029
   8708 C          -16.1300    -8.7287    10.6242 C       5      r5     0.0037
   8709 C          -16.0018   -11.3250    10.8757 C       5      r5    -0.0007
   8710 C          -15.9207    -7.3846    10.7773 C       7      r7    -0.0484
   8711 C          -14.9992    -9.1688     9.9140 C       5      r5     0.0011
   8712 C          -15.1063   -10.6251     9.9532 C       5      r5    -0.0015
   8713 C          -14.5176    -7.0066    10.4294 C       7      r7     0.0163
   8714 C          -14.0591    -8.1748     9.6841 C       5      r5     0.0000
   8715 C          -12.7215    -8.1440     9.1928 C       6      r6    -0.0338
   8716 C          -12.1466    -6.8857     8.6883 C       5      r5     0.2301
   8717 C          -11.7116   -10.8741     7.4212 C       7      r7    -0.0059
   8718 C          -11.9793    -9.2418     9.8904 C       6      r6     0.0101
   8719 O          -10.8923    -6.8145     7.8514 O       5      r5    -0.4794
   8720 C          -10.7848    -9.8277     7.8435 C       7      r7     0.0234
   8721 C          -10.6937    -9.3844     9.2176 C       7      r7     0.0138
   8722 C           -9.5931    -8.6147     9.8169 C       7      r7     0.0234
   8723 C           -9.4165    -8.7629    11.2508 C       5      r5    -0.0053
   8724 C           -8.4823   -10.9864    10.0719 C       7      r7    -0.0036
   8725 C           -8.4021    -9.4073     6.8947 C       7      r7     0.0080
   8726 C           -8.3549    -8.2385     9.0956 C       7      r7     0.0306
   8727 C           -8.0306    -8.3308    11.4230 C       5      r5     0.0006
   8728 C           -7.7769    -9.2998     8.2234 C       7      r7    -0.0046
   8729 C           -7.6004    -7.6171    10.2149 C       5      r5    -0.0018
   8730 C           -7.2802   -10.5185     9.0166 C       7      r7    -0.0014
   8731 C           -5.8610   -10.3697     9.5013 C       7      r7    -0.0007
   8732 C           -4.9440    -9.6476     8.5992 C       6      r6    -0.0012
   8733 C           -4.9523   -10.2909     7.2546 C       5      r5    -0.0027
   8734 C           -4.1218    -8.6430     9.2029 C       0      r0    -0.0009
   8735 C           -3.9981    -8.6205    10.6809 C       7      r7     0.0002
   8736 C           -3.5660    -9.9024    11.2294 C       7      r7    -0.0004
   8737 C           -3.2081    -7.7263     8.4323 C       6      r6     0.0005
   8738 C           -2.8187   -10.9242    10.3836 C       6      r6     0.0001
   8739 C           -1.7732    -7.9955     8.2110 C       6      r6    -0.0012
   8740 C           -1.4757   -11.1937     9.9932 C       6      r6    -0.0019
   8741 C           -1.1904    -7.1741     7.1793 C       6      r6     0.0013
   8742 C           -0.9759    -8.1905     9.4609 C       7      r7     0.0013
   8743 C           -0.9716    -6.9429    10.2535 C       7      r7     0.0019
   8744 C           -0.1609   -10.5041    10.0974 C       0      r0    -0.0004
   8745 C            0.1378    -9.1161     9.6514 C       7      r7    -0.0013
   8746 C            0.9868   -11.2601    10.5883 C       7      r7    -0.0008
   8747 C            1.5030    -8.5902     9.6000 C       7      r7    -0.0001
   8748 C            2.0612    -7.7910    10.7684 C       7      r7     0.0009
   8749 C            2.2192    -8.6801     8.3169 C       6      r6    -0.0017
   8750 C            2.3615   -10.8041    10.3569 C       7      r7    -0.0009
   8751 C            2.6417    -7.6971     7.2995 C       6      r6    -0.0011
   8752 C            2.6549   -11.0752     8.9123 C       7      r7    -0.0021
   8753 C            2.6294   -10.0538     7.8752 C       6      r6    -0.0008
   8754 C            3.3041   -10.3612    11.3845 C       7      r7    -0.0022
   8755 C            3.3556    -8.0472    11.3541 C       0      r0     0.0005
   8756 C            4.1869    -9.2238    10.9439 C       0      r0    -0.0004
   8757 C            5.4904    -9.2610    10.2469 C       7      r7    -0.0000
   8758 C            5.5835    -8.8919     8.7890 C       7      r7    -0.0008
   8759 C            5.8233    -7.7751     7.8789 C       5      r5     0.0004
   8760 C            5.8628    -9.9246     7.8983 C       7      r7    -0.0007
   8761 C            6.2546   -11.2526     8.1798 C       7      r7    -0.0068
   8762 C            6.7688    -9.6822    10.8829 C       7      r7    -0.0011
   8763 C            7.6114   -10.6844    10.2065 C       7      r7    -0.0008
   8764 C            8.2050    -7.8135    11.2187 C       6      r6     0.0012
   8765 C            8.9583   -11.1323    10.6494 C       0      r0    -0.0014
   8766 C            9.0079    -7.3336     7.4925 C       7      r7     0.0004
   8767 C            9.4696    -8.4345    10.8073 C       7      r7    -0.0000
   8768 C            9.4525    -8.5282     6.7673 C       7      r7     0.0001
   8769 C            9.8847   -11.2186     6.9368 C       7      r7    -0.0009
   8770 C           10.0359    -9.7797     7.3845 C       7      r7    -0.0006
   8771 C           10.1803    -7.9448     9.6143 C       7      r7     0.0002
   8772 C           11.3370    -9.4477     7.9353 C       7      r7     0.0006
   8773 C           11.3983    -8.7287     9.2298 C       7      r7     0.0010
   8774 C           12.4435    -7.9127    11.4097 C       7      r7     0.0001
   8775 C           12.4807    -8.7586    10.1950 C       7      r7     0.0010
   8776 C           12.6624    -9.7581     7.3669 C       5      r5     0.0001
   8777 C           13.5991    -9.6522     9.8342 C       6      r6     0.0010
   8778 C           13.6325    -9.9995     8.4427 C       5      r5     0.0003
   8779 C           14.6997    -9.9030    10.7481 C       6      r6     0.0004
   8780 C           14.8298   -10.1132     7.7826 C       5      r5    -0.0006
   8781 C           15.8724   -10.3264    10.0233 C       6      r6     0.0012
   8782 C           15.9631   -10.0283     8.5906 C       6      r6    -0.0008
   8783 C           16.7554    -8.5430     6.8665 C       5      r5    -0.0009
   8784 C           16.8853    -9.0761     8.1682 C       5      r5    -0.0005
   8785 C           17.7508    -7.6017     6.7975 C       5      r5    -0.0005
   8786 C           18.0288    -8.5145     8.9237 C       7      r7     0.0015
   8787 C           18.4575    -7.5059     8.0259 C       7      r7     0.0003
   8788 C           18.5243    -8.9338    10.2931 C       7      r7     0.0006
   8789 C           18.7163   -10.3130    10.7949 C       0      r0    -0.0008
   8790 C           19.4721    -7.8163    10.3864 C       7      r7     0.0005
   8791 C           20.1084   -10.0406     7.6909 C       6      r6     0.0001
   8792 C           20.0598   -10.9118     8.7906 C       6      r6     0.0012
   8793 C           20.0784   -10.7994    10.2904 C       0      r0    -0.0001
   8794 C           20.8711    -8.8328     7.6572 C       6      r6     0.0021
   8795 C           20.9512    -7.9406    10.1213 C       6      r6    -0.0002
   8796 C           21.2280   -10.7062    11.0765 C       0      r0    -0.0013
   8797 C           21.5276    -8.2152     8.7989 C       6      r6     0.0007
   8798 C           21.7702    -7.3489    11.1021 C       7      r7    -0.0036
   8799 C           22.8258    -7.6724     8.5038 C       6      r6    -0.0010
   8800 C           23.2605    -7.4404     7.1707 C       6      r6     0.0003
   8801 C           23.2999    -7.1567    10.9224 C       7      r7    -0.0015
   8802 C           23.7595    -7.3479     9.5072 C       7      r7    -0.0025
   8803 C           24.5966    -7.2995     6.9185 C       5      r5    -0.0003
   8804 C           25.0737    -7.2784     9.1841 C       7      r7    -0.0014
   8805 C          -25.1709    -3.3743     7.5247 C       6      r6    -0.0032
   8806 C          -24.3549    -3.2932     8.8706 C       6      r6     0.0163
   8807 C          -24.0805    -5.9965    10.8466 C       7      r7     0.0005
   8808 C          -23.1493    -4.3272     8.6733 C       6      r6    -0.0004
   8809 C          -22.7042    -5.4741    10.8771 C       7      r7     0.0162
   8810 C          -22.5364    -4.0261     7.4272 C       5      r5    -0.0028
   8811 C          -22.3142    -4.9256     9.5859 C       7      r7     0.0122
   8812 C          -21.1560    -3.9370     7.2052 C       7      r7    -0.0024
   8813 C          -21.1099    -6.8660     8.2767 C       6      r6    -0.0018
   8814 C          -20.8845    -5.4497     9.0449 C       7      r7    -0.0072
   8815 C          -20.1494    -4.5715     7.9954 C       7      r7     0.0055
   8816 C          -19.8979    -4.3796    11.1413 C       7      r7     0.0162
   8817 C          -19.8750    -5.4981    10.2180 C       7      r7     0.0191
   8818 C          -18.9873    -4.8888     7.2259 C       7      r7    -0.0002
   8819 C          -18.8623    -3.2977    11.1425 C       6      r6     0.0423
   8820 C          -18.8706    -6.3553     7.3908 C       6      r6    -0.0040
   8821 C          -18.0909    -2.6436    10.0777 C       5      r5    -0.0049
   8822 C          -17.8522    -6.7877     8.3355 C       7      r7     0.0137
   8823 C          -16.9761    -3.1913     9.2870 C       5      r5     0.1746
   8824 O          -16.9344    -5.1244    10.8586 O       7      r7    -0.5224
   8825 C          -16.9123    -6.5337    11.3421 C       7      r7     0.2577
   8826 C          -16.4623    -4.3907     9.5876 C       7      r7     0.1907
   8827 C          -15.5385    -6.2020     7.7249 C       5      r5     0.0078
   8828 C          -15.2984    -5.0253     8.6922 C       7      r7    -0.0171
   8829 C          -14.4597    -4.1667     7.7078 C       7      r7     0.0331
   8830 C          -14.1449    -5.5632     9.7630 C       7      r7     0.0267
   8831 C          -14.0564    -4.5528    10.8184 C       7      r7     0.0298
   8832 C          -13.9796    -2.8361     8.0772 C       7      r7     0.0555
   8833 C          -13.8241    -3.1293    10.6066 C       7      r7     0.0289
   8834 C          -13.7637    -2.4355     9.4257 C       7      r7     0.0641
   8835 C          -12.6593    -5.6569     9.0985 C       5      r5    -0.0934
   8836 C          -11.6353    -4.7299     8.9274 C       5      r5     0.2102
   8837 O          -11.5959    -3.2478     9.3458 O       6      r6    -0.5354
   8838 C          -10.7222    -5.2958     8.0987 C       5      r5     0.1575
   8839 C          -10.3230    -2.6040     8.9872 C       6      r6     0.2538
   8840 C           -9.6756    -4.4896     7.5461 C       7      r7     0.0004
   8841 C           -9.3000    -3.2199     8.1848 C       7      r7    -0.0613
   8842 C           -7.8440    -2.7435     8.1753 C       7      r7     0.0113
   8843 C           -7.7998    -5.1216    10.9236 C       0      r0     0.0041
   8844 C           -6.9929    -6.2145    10.2468 C       0      r0     0.0067
   8845 C           -6.5749    -3.2813     7.6995 C       7      r7    -0.0028
   8846 C           -5.6978    -5.8865     9.8340 C       0      r0    -0.0027
   8847 C           -5.3687    -2.7092     8.2469 C       6      r6    -0.0021
   8848 C           -4.4270    -5.5463     9.4601 C       0      r0    -0.0014
   8849 C           -3.9988    -3.1237     7.8804 C       6      r6    -0.0020
   8850 C           -3.8952    -4.3562     7.1105 C       6      r6    -0.0013
   8851 C           -3.8016    -4.5725    10.4301 C       6      r6    -0.0030
   8852 C           -3.5436    -6.3320     8.4621 C       6      r6     0.0008
   8853 C           -2.8390    -2.8417     8.7504 C       6      r6     0.0005
   8854 C           -2.9199    -5.3875     7.5538 C       6      r6     0.0002
   8855 C           -2.8146    -3.5251    10.0335 C       6      r6    -0.0004
   8856 C           -1.7547    -3.1892    10.9399 C       6      r6     0.0014
   8857 C           -1.5689    -5.7575     7.1731 C       6      r6     0.0012
   8858 C           -0.6719    -2.3980    10.5254 C       6      r6    -0.0006
   8859 C           -0.1264    -3.6458     7.4149 C       7      r7    -0.0019
   8860 C            0.2641    -6.1287    10.1934 C       7      r7     0.0018
   8861 C            0.4595    -4.0181     8.7057 C       5      r5    -0.0006
   8862 C            0.6356    -5.4671     8.9464 C       5      r5     0.0007
   8863 C            0.5736    -2.4335    11.1095 C       6      r6    -0.0001
   8864 C            1.1528    -6.6911    11.2207 C       7      r7     0.0005
   8865 C            1.6026    -3.4750     9.4314 C       5      r5    -0.0003
   8866 C            2.0724    -5.7729     8.8603 C       7      r7     0.0010
   8867 C            2.5136    -4.5236     9.4497 C       7      r7     0.0004
   8868 C            2.7764    -6.3303     7.7281 C       7      r7     0.0005
   8869 C            3.3607    -2.3939    11.2942 C       7      r7     0.0010
   8870 C            3.6053    -5.3358     6.9485 C       7      r7    -0.0005
   8871 C            3.8838    -4.3738     9.8511 C       7      r7     0.0006
   8872 C            4.1490    -3.6056    11.0128 C       7      r7     0.0014
   8873 C            4.6745    -4.8219     7.6467 C       7      r7    -0.0007
   8874 C            4.8193    -4.9439     9.0415 C       7      r7    -0.0005
   8875 C            5.5392    -3.8726     7.0963 C       7      r7    -0.0006
   8876 C            5.9041    -5.7526     9.5420 C       7      r7     0.0013
   8877 C            6.3825    -6.4664     8.3353 C       7      r7     0.0003
   8878 C            6.6629    -5.7270    10.7676 C       7      r7     0.0016
   8879 C            6.9091    -4.1741     7.3898 C       7      r7    -0.0007
   8880 C            7.1674    -5.6368     7.4892 C       7      r7     0.0001
   8881 C            7.8539    -3.1303     7.3535 C       7      r7    -0.0006
   8882 C            7.9946    -6.4569    10.7478 C       6      r6     0.0009
   8883 C            9.0691    -5.8609     9.9300 C       5      r5     0.0006
   8884 C            9.2529    -3.3211     7.7870 C       5      r5     0.0006
   8885 C            9.5621    -4.5438    10.0241 C       5      r5    -0.0012
   8886 C            9.5206    -3.5320    11.1808 C       6      r6    -0.0013
   8887 C            9.7596    -6.6998     8.7799 C       7      r7     0.0007
   8888 C           10.0328    -4.2920     8.6358 C       5      r5     0.0003
   8889 C           10.5626    -5.5276     8.1276 C       5      r5     0.0005
   8890 C           11.4642    -5.3741     6.9225 C       0      r0     0.0009
   8891 C           12.1808    -2.4188    11.1881 C       5      r5    -0.0023
   8892 C           12.7009    -5.3896     7.4935 C       0      r0     0.0009
   8893 C           13.6238    -2.1810    10.8297 C       5      r5    -0.0007
   8894 C           13.7124    -5.4116     8.2431 C       0      r0     0.0014
   8895 C           14.2427    -3.3813    11.3361 C       5      r5    -0.0013
   8896 C           14.5352    -5.4261     9.2629 C       0      r0     0.0009
   8897 C           15.4002    -5.3943    10.3715 C       7      r7    -0.0003
   8898 C           15.4857    -4.0292    10.9438 C       7      r7    -0.0008
   8899 C           15.8851    -6.5725    11.1315 C       7      r7     0.0004
   8900 C           16.8247    -3.3643    10.9603 C       7      r7     0.0021
   8901 C           18.3118    -5.4950    11.1515 C       7      r7     0.0016
   8902 C           19.3232    -3.0028    11.0620 C       7      r7    -0.0015
   8903 C           19.1708    -6.3616    10.3712 C       7      r7     0.0012
   8904 C           19.4072    -6.4078     8.0330 C       7      r7     0.0024
   8905 C           19.7434    -5.8852     6.6467 C       7      r7     0.0014
   8906 C           19.8857    -5.7360     9.1850 C       7      r7    -0.0000
   8907 C           20.0336    -3.5036    10.1361 C       7      r7    -0.0016
   8908 C           20.5094    -4.3929     9.1704 C       7      r7    -0.0028
   8909 C           20.8688    -3.5820     7.9540 C       7      r7     0.0002
   8910 C           21.6834    -4.2794     6.9215 C       7      r7    -0.0025
   8911 C           23.8739    -2.5152     9.8906 C       7      r7     0.0053
   8912 C           23.8682    -3.0550     7.4389 C       7      r7     0.0009
   8913 C           25.1966    -3.7953    11.3791 C       7      r7     0.0422
   8914 C           25.1656    -3.1644    10.0897 C       7      r7     0.0206
   8915 C          -25.2146    -5.3209    11.2573 C       7      r7    -0.0041
   8916 C          -24.8549     2.0147    10.2907 C       6      r6     0.2479
   8917 C          -23.6302    -1.8822     9.0385 C       5      r5    -0.0347
   8918 C          -23.4703    -0.9445     7.8532 C       5      r5     0.0036
   8919 C          -22.8034    -1.4904    10.0797 C       5      r5     0.2356
   8920 C          -22.3543    -0.0411     8.2156 C       5      r5     0.0015
   8921 C          -22.0383    -0.3208     9.6473 C       5      r5    -0.0289
   8922 C          -21.6259     0.7526     7.2223 C       5      r5    -0.0012
   8923 C          -21.3907     2.1642     7.4516 C       5      r5    -0.0002
   8924 C          -21.1384    -0.1159    10.7401 C       7      r7    -0.0339
   8925 C          -19.7575     0.4260    10.9115 C       7      r7     0.0028
   8926 C          -18.8355     0.1571     9.8015 C       5      r5    -0.0008
   8927 C          -18.4694     1.1792     8.8527 C       5      r5     0.0006
   8928 C          -18.1786    -1.2510     9.6358 C       5      r5    -0.0550
   8929 C          -17.3279     0.3458     8.1977 C       5      r5    -0.0483
   8930 C          -17.3337    -1.0930     8.6071 C       5      r5     0.2367
   8931 O          -16.4263    -2.2543     8.2082 O       5      r5    -0.5073
   8932 C          -16.1297     0.9351     8.0240 C       0      r0     0.0290
   8933 C          -14.8918     1.5906     7.8700 C       0      r0    -0.0026
   8934 C          -13.9029    -1.5547     7.4182 C       5      r5     0.0421
   8935 C          -13.6437     0.8953     8.4177 C       0      r0     0.0053
   8936 C          -13.5486    -0.5397     8.3705 C       5      r5    -0.0050
   8937 C          -13.1374    -1.2505     9.4959 C       5      r5     0.0256
   8938 C          -12.5691     1.7350     8.9209 C       7      r7    -0.0030
   8939 C          -12.3290    -0.8658    10.5618 C       7      r7     0.0190
   8940 C          -11.7258     2.1335     7.7249 C       7      r7    -0.0006
   8941 C          -11.0263    -0.5264    10.4187 C       7      r7     0.0208
   8942 C          -10.2637     2.1436     7.7002 C       7      r7     0.0004
   8943 C          -10.1440    -1.3550     9.6476 C       6      r6    -0.0365
   8944 C           -9.3429     2.3936     8.8324 C       7      r7    -0.0069
   8945 C           -8.8313    -0.9530     9.7215 C       5      r5    -0.0008
   8946 C           -8.2476    -0.2153    10.7715 C       5      r5     0.0014
   8947 C           -7.8113    -1.6117     9.0300 C       5      r5    -0.0118
   8948 C           -7.0400     1.7974     7.7420 C       7      r7    -0.0634
   8949 C           -6.9427    -0.6953    10.9652 C       5      r5     0.0054
   8950 C           -6.6529    -1.3387     9.7407 C       5      r5     0.0075
   8951 C           -5.6765     1.5968     8.0268 C       6      r6     0.2719
   8952 C           -5.4192    -1.8632     9.4185 C       6      r6    -0.0011
   8953 O           -5.0888     2.0760     9.2818 O       6      r6    -0.5174
   8954 C           -4.9511     0.7450     7.1368 C       6      r6    -0.0488
   8955 C           -4.3686    -1.3610    10.2555 C       6      r6     0.0060
   8956 C           -3.5855     0.2999     7.3413 C       7      r7     0.0257
   8957 C           -3.3344    -0.5834     9.7988 C       5      r5     0.0131
   8958 C           -2.9882     0.2938     8.6883 C       7      r7     0.0263
   8959 C           -2.5052    -0.1452    10.8176 C       5      r5     0.0060
   8960 C           -2.1581     1.3648     9.1280 C       7      r7     0.0141
   8961 C           -1.8562    -1.8204     8.4320 C       7      r7    -0.0026
   8962 C           -1.6970     0.9446    10.3507 C       5      r5     0.0002
   8963 C           -1.5654    -1.4052     7.0519 C       7      r7    -0.0015
   8964 C           -0.6957    -1.6777     9.2826 C       7      r7    -0.0013
   8965 C           -0.6466     1.4926    11.1446 C       6      r6    -0.0002
   8966 C           -0.2050     0.6499     7.0826 C       7      r7    -0.0026
   8967 C            0.4584    -0.9678     8.9325 C       7      r7    -0.0022
   8968 C            0.7428     0.0004     7.8952 C       7      r7    -0.0017
   8969 C            1.6551    -1.1054     9.6069 C       7      r7    -0.0018
   8970 C            1.7531     1.8126     7.2382 C       5      r5    -0.0021
   8971 C            1.9524     0.6160     8.0158 C       5      r5    -0.0024
   8972 C            1.8526    -2.3015    10.3809 C       7      r7    -0.0005
   8973 C            2.5465    -0.0762     9.1853 C       7      r7    -0.0023
   8974 C            3.4959     0.4581    10.1500 C       7      r7    -0.0008
   8975 C            3.6680     1.8582     9.7892 C       6      r6     0.0006
   8976 C            4.3627    -0.1737    11.1690 C       7      r7     0.0014
   8977 C            4.7108    -1.5451    11.2044 C       7      r7     0.0006
   8978 C            6.1456     1.3183     9.3684 C       6      r6    -0.0003
   8979 C            6.8444     0.4360    10.3020 C       6      r6    -0.0001
   8980 C            7.1372     1.5791     8.3455 C       5      r5    -0.0003
   8981 C            8.1377    -0.2433    10.0233 C       7      r7    -0.0001
   8982 C            8.4253    -1.3730    10.9116 C       7      r7    -0.0003
   8983 C            8.5086     1.5045     8.4967 C       5      r5     0.0020
   8984 C            9.1302     0.5695     9.3822 C       7      r7     0.0008
   8985 C            9.7247    -2.0742    10.8535 C       7      r7    -0.0014
   8986 C            9.9332    -2.1276     7.3534 C       5      r5     0.0010
   8987 C           10.6136     0.6176     9.4267 C       7      r7    -0.0010
   8988 C           11.1122    -1.6690    10.5724 C       7      r7    -0.0006
   8989 C           11.1049     1.8457     8.8213 C       7      r7    -0.0012
   8990 C           11.5623    -0.4075     9.9372 C       7      r7    -0.0012
   8991 C           12.9979    -0.1164     9.7073 C       7      r7    -0.0022
   8992 C           13.7495     0.9471     8.9984 C       7      r7    -0.0025
   8993 C           14.0181    -1.0246    10.1391 C       5      r5    -0.0012
   8994 C           15.1364     0.5314     8.8392 C       5      r5    -0.0020
   8995 C           15.3916    -0.5130     9.7092 C       5      r5    -0.0009
   8996 C           15.9904     1.7754     6.8344 C       7      r7     0.0087
   8997 C           16.2514     1.2674     8.1361 C       6      r6    -0.0027
   8998 C           16.7470    -0.8002    10.1422 C       6      r6    -0.0029
   8999 C           16.8853    -2.1067    10.6011 C       0      r0    -0.0001
   9000 C           17.5855     1.1128     8.5296 C       5      r5    -0.0001
   9001 C           17.7801     0.1160     9.5178 C       5      r5    -0.0038
   9002 C           18.8340     1.6848     8.1194 C       5      r5     0.0019
   9003 C           19.1508     0.1367     9.9288 C       5      r5    -0.0026
   9004 C           19.3010    -0.2581    11.3323 C       5      r5    -0.0039
   9005 C           19.7709     1.1327     9.0167 C       5      r5    -0.0027
   9006 C           21.0159     1.7717     8.8142 C       5      r5     0.0036
   9007 C           20.8658    -2.1687     7.9356 C       7      r7    -0.0027
   9008 C           21.8785     0.3970    10.3186 C       7      r7     0.0072
   9009 C           22.2025     1.5021     9.5545 C       7      r7     0.0101
   9010 C           22.2538    -0.9135     9.9398 C       7      r7    -0.0003
   9011 C           22.1272    -1.3766     8.5360 C       7      r7    -0.0006
   9012 C           22.2802    -0.3012     7.3855 C       7      r7    -0.0007
   9013 C           23.0914    -1.6516    10.7966 C       7      r7     0.0166
   9014 C           23.2150     0.7751     7.5269 C       7      r7    -0.0068
   9015 C           23.4569     1.3352     8.8461 C       7      r7     0.0317
   9016 C           23.2350    -2.5147     8.6159 C       7      r7    -0.0013
   9017 C           24.7413     2.0655     9.1274 C       6      r6    -0.0370
   9018 C          -24.4561     6.2149     8.5163 C       7      r7     0.0022
   9019 C          -24.0605     3.3576     7.9355 C       7      r7    -0.0064
   9020 C          -23.8522     2.9952    10.2958 C       6      r6    -0.0594
   9021 C          -23.7742     3.9283     9.1793 C       7      r7     0.0100
   9022 C          -23.5602     5.3882     9.2463 C       7      r7    -0.0017
   9023 C          -22.7214     3.1413    11.3039 C       6      r6     0.0352
   9024 C          -22.2172     5.9297     9.3762 C       7      r7    -0.0006
   9025 C          -21.4212     3.4839    10.8173 C       0      r0    -0.0080
   9026 C          -21.1880     3.7861     9.3215 C       7      r7     0.0005
   9027 C          -21.2496     5.0601     8.6761 C       7      r7    -0.0023
   9028 C          -20.6513     5.3769     7.3469 C       7      r7    -0.0002
   9029 C          -20.5872     2.6315     8.5900 C       7      r7     0.0002
   9030 C          -19.4127     4.6959     6.9988 C       7      r7    -0.0011
   9031 C          -19.1223     2.4437     8.5055 C       7      r7    -0.0015
   9032 C          -18.7022     3.7506     7.8511 C       7      r7     0.0001
   9033 C          -18.1505     5.0217    11.0700 C       0      r0     0.0014
   9034 C          -17.5100     6.3349    11.1882 C       5      r5     0.0017
   9035 C          -17.3124     4.1107     7.9893 C       6      r6     0.0003
   9036 C          -17.2239     4.0039    10.6147 C       5      r5    -0.0008
   9037 C          -16.6178     4.0752     9.2961 C       5      r5     0.0004
   9038 C          -16.0458     3.5652    11.4251 C       7      r7    -0.0007
   9039 C          -15.2378     7.0617    10.9022 C       7      r7     0.0004
   9040 C          -15.1832     3.6972     9.2683 C       5      r5    -0.0016
   9041 C          -14.8091     3.3003    10.6372 C       7      r7    -0.0012
   9042 C          -14.8205     3.1139     7.9794 C       6      r6    -0.0005
   9043 C          -13.5985     2.6607    11.0715 C       7      r7    -0.0008
   9044 C          -13.0678     6.3306     8.9163 C       7      r7     0.0015
   9045 C          -12.9628     6.3668    10.3928 C       7      r7    -0.0000
   9046 C          -12.4356     2.3317    10.2453 C       7      r7    -0.0009
   9047 C          -12.0965     5.4180    11.1076 C       7      r7    -0.0026
   9048 C          -12.1594     5.8319     7.9142 C       7      r7    -0.0001
   9049 C          -11.1670     4.5557    10.3555 C       7      r7    -0.0043
   9050 C          -11.1617     3.0640    10.5008 C       7      r7    -0.0036
   9051 C          -10.6720     5.6258     8.0672 C       7      r7    -0.0006
   9052 C          -10.2052     5.1003     9.3702 C       7      r7    -0.0015
   9053 C           -9.8051     2.7250    10.1338 C       7      r7     0.0022
   9054 C           -9.8706     6.5297     7.2166 C       0      r0     0.0012
   9055 C           -9.0643     5.4135    10.2647 C       7      r7     0.0010
   9056 C           -8.6344     3.0578    11.1898 C       7      r7     0.0067
   9057 C           -8.5095     4.5311    11.3398 C       7      r7    -0.0021
   9058 C           -7.8467     2.2948     8.8705 C       7      r7     0.0481
   9059 C           -7.3523     2.6589    10.1698 C       5      r5    -0.0609
   9060 C           -6.0579     2.5503    10.4296 C       6      r6     0.2431
   9061 C           -3.0937     6.3031     9.5922 C       6      r6    -0.0005
   9062 C           -2.7861     4.7136     7.4149 C       7      r7     0.0017
   9063 C           -3.1450     3.8982    11.0417 C       6      r6     0.0076
   9064 C           -2.8853     5.0663     8.8504 C       5      r5    -0.0005
   9065 C           -2.8088     3.8024     9.6219 C       5      r5     0.0329
   9066 C           -2.6797     6.3224    10.9698 C       6      r6    -0.0014
   9067 C           -2.7074     3.2093     7.4309 C       7      r7     0.0139
   9068 C           -2.3549     2.7575     8.7342 C       7      r7     0.0194
   9069 C            0.3170     5.0403    10.2936 C       7      r7    -0.0032
   9070 C            0.3950     6.4328    10.4307 C       7      r7     0.0004
   9071 C            0.4675     2.4071    10.7565 C       6      r6    -0.0087
   9072 C            0.6637     4.1910     9.1375 C       7      r7    -0.0017
   9073 C            1.1153     2.8526     9.5300 C       5      r5     0.0011
   9074 C            1.6997     6.2314     7.8678 C       7      r7     0.0033
   9075 C            1.7490     4.8546     8.4447 C       7      r7    -0.0004
   9076 C            2.5988     2.7741     9.3525 C       5      r5     0.0004
   9077 C            2.9761     6.6778     7.1946 C       5      r5    -0.0011
   9078 C            2.9540     4.1222     8.9213 C       5      r5     0.0002
   9079 C            4.0708     4.6394     9.7240 C       5      r5     0.0043
   9080 C            4.3745     5.9519    10.2660 C       5      r5     0.0032
   9081 C            5.0526     2.2559     9.7771 C       6      r6     0.0013
   9082 C            5.1618     3.6987    10.0166 C       5      r5     0.0014
   9083 C            5.7622     5.8458    10.7080 C       5      r5    -0.0005
   9084 C            6.1651     4.4110    10.7713 C       5      r5     0.0010
   9085 C            6.9847     2.6130     7.4811 C       5      r5    -0.0002
   9086 C            6.9892     6.6197    10.6522 C       7      r7    -0.0009
   9087 C            7.6537     4.2918    10.8421 C       5      r5    -0.0009
   9088 C            8.0871     5.6872    10.7672 C       7      r7     0.0007
   9089 C            8.1804     3.2167     7.0299 C       7      r7     0.0009
   9090 C            8.7523     3.5317    11.4151 C       5      r5    -0.0010
   9091 C            9.1776     2.3956     7.6887 C       7      r7     0.0005
   9092 C            9.5326     5.7726    10.8119 C       7      r7    -0.0021
   9093 C           10.5872     2.5315     7.5504 C       7      r7     0.0000
   9094 C           10.9324     4.0823     7.6985 C       7      r7     0.0006
   9095 C           11.3207     6.5588     9.2932 C       7      r7     0.0002
   9096 C           11.7873     4.2206     8.8079 C       7      r7     0.0026
   9097 C           12.0694     2.8343     9.2921 C       7      r7    -0.0030
   9098 C           12.3130     5.5029     9.4598 C       7      r7    -0.0023
   9099 C           13.3914     2.3534     8.7828 C       7      r7    -0.0019
   9100 C           13.6878     5.8785     9.2593 C       6      r6     0.0056
   9101 C           13.8149     2.9009     7.5194 C       7      r7     0.0068
   9102 C           14.4961     5.4612     8.0960 C       5      r5    -0.0353
   9103 C           14.6760     4.1332     7.5359 C       7      r7    -0.0419
   9104 C           15.5988     6.2417     7.6321 C       5      r5     0.2342
   9105 C           15.8958     4.1413     6.8480 C       7      r7     0.2465
   9106 C           17.9055     6.6627    10.5422 C       5      r5     0.0062
   9107 H           18.5761     2.3513    10.9257 H       0      r0     0.0196
   9108 C           18.5180     5.5176     9.6847 C       5      r5     0.0157
   9109 C           18.8887     4.3439    10.2601 C       0      r0     0.0339
   9110 C           19.2274     3.2067    10.8522 C       0      r0     0.0010
   9111 C           19.3424     6.1517     8.6012 C       7      r7     0.0351
   9112 C           19.5151     2.7234     7.3944 C       7      r7    -0.0024
   9113 C           20.0361     5.4460     7.5453 C       7      r7     0.0034
   9114 C           20.9162     2.7376     7.7333 C       7      r7     0.0064
   9115 C           21.4667     5.1324     7.5554 C       7      r7     0.0199
   9116 O           21.7253     5.1148    10.6986 O       5      r5    -0.5038
   9117 C           21.9151     3.7655     7.3638 C       7      r7     0.0041
   9118 C           22.5737     6.0558     7.9041 C       7      r7     0.0181
   9119 C           23.0470     5.5360    11.2634 C       5      r5     0.2383
   9120 C           23.3846     3.9131     7.2838 C       5      r5     0.0046
   9121 C           23.7660     5.3032     7.5873 C       5      r5     0.0015
   9122 C           23.8301     6.6216    10.6666 C       6      r6    -0.0362
   9123 C           24.3128     2.8794     6.7714 C       6      r6    -0.0038
   9124 C           25.2105     5.8294     7.2413 C       7      r7    -0.0023
   9125 C           25.1679     2.7284     7.9574 C       6      r6     0.0079
   9126 C          -25.0830     8.3608     7.8473 C       7      r7    -0.0011
   9127 C          -25.1145     9.9483     7.5161 C       7      r7     0.0013
   9128 C          -25.1158    10.7491    10.3107 C       7      r7    -0.0029
   9129 C          -24.5641     7.5594     8.9611 C       7      r7    -0.0005
   9130 C          -24.4483     7.8612    10.4746 C       7      r7     0.0002
   9131 C          -23.6926    10.3674     7.5297 C       6      r6    -0.0039
   9132 C          -23.6228    11.0135    10.1837 C       7      r7    -0.0018
   9133 C          -22.9522     7.8068    10.9067 C       7      r7    -0.0009
   9134 C          -23.0800    10.5750     8.8813 C       6      r6    -0.0006
   9135 C          -22.0858     8.7344     6.8375 C       7      r7    -0.0010
   9136 C          -21.9231     7.1254    10.1757 C       7      r7    -0.0006
   9137 C          -21.7497    10.0491     9.0299 C       6      r6    -0.0002
   9138 C          -21.3123     9.1206     8.0316 C       7      r7    -0.0005
   9139 C          -20.7326    10.8059     9.8980 C       5      r5     0.0007
   9140 C          -20.4449     7.4304    10.4462 C       7      r7     0.0010
   9141 C          -20.0152     8.4245     8.1892 C       7      r7    -0.0006
   9142 C          -19.7613     9.9617    10.7419 C       5      r5    -0.0001
   9143 C          -19.5819     7.7124     9.2852 C       5      r5     0.0003
   9144 C          -18.9931     8.4000     7.1893 C       7      r7     0.0011
   9145 C          -18.4274    10.4909    10.7582 C       5      r5     0.0027
   9146 C          -18.1869     7.5535     9.0816 C       5      r5     0.0006
   9147 C          -18.3470    11.1535     9.3178 C       7      r7     0.0003
   9148 C          -17.7884     7.9615     7.7817 C       7      r7    -0.0030
   9149 C          -17.2422     6.9850     9.9286 C       5      r5    -0.0005
   9150 C          -16.3427     7.9436     7.4514 C       7      r7     0.0035
   9151 C          -15.9074     7.3060     9.7088 C       7      r7     0.0026
   9152 C          -15.4358     7.5013     8.3999 C       7      r7     0.0095
   9153 C          -14.1651     6.9130     8.0845 C       7      r7     0.0078
   9154 C          -13.8842    11.0740    10.2842 C       6      r6     0.2559
   9155 C          -13.8038     7.1886    11.2561 C       7      r7     0.0031
   9156 O          -13.0790    10.8062     9.0505 O       6      r6    -0.5117
   9157 C          -11.8965     9.8626     9.2949 C       6      r6     0.2458
   9158 C          -11.7078     9.2148    10.5974 C       6      r6    -0.0544
   9159 C          -11.0485    10.5738     6.9626 C       7      r7     0.0286
   9160 C          -10.9280     9.6675     8.3600 C       7      r7    -0.0431
   9161 C          -10.6717     8.2081    11.0102 C       5      r5     0.0098
   9162 C           -9.8327     8.7961     8.7361 C       7      r7     0.0037
   9163 C           -9.7039     7.9458     9.9577 C       5      r5    -0.0075
   9164 C           -9.0050     8.6820     7.4846 C       7      r7     0.0013
   9165 C           -8.9052     6.8408    10.5400 C       5      r5    -0.0019
   9166 C           -8.3170     9.9780     7.3061 C       7      r7     0.0014
   9167 C           -7.5146    10.4306     9.7682 C       6      r6    -0.0005
   9168 C           -7.2589    10.3304     8.3003 C       7      r7     0.0006
   9169 C           -6.7391     9.4292    10.4809 C       6      r6    -0.0022
   9170 C           -6.0920     8.3258     9.7762 C       5      r5    -0.0011
   9171 C           -6.1745     9.5557     7.7394 C       7      r7    -0.0007
   9172 C           -5.8582     8.3477     8.3996 C       5      r5    -0.0002
   9173 C           -5.1681     7.4132    10.2869 C       5      r5     0.0005
   9174 C           -4.8554     7.4779     8.0004 C       5      r5     0.0031
   9175 C           -4.3278     6.9716     9.2426 C       5      r5     0.0045
   9176 C           -4.0595     7.8175     6.7855 C       6      r6     0.0014
   9177 C           -2.8298    11.2298     7.3373 C       5      r5     0.0005
   9178 C           -1.6755    10.7397     9.7277 C       7      r7     0.0002
   9179 C           -0.7057     9.8268     9.0971 C       7      r7    -0.0005
   9180 C           -0.3124     8.6680     9.8821 C       7      r7    -0.0030
   9181 C            0.0742    10.1855     7.9027 C       6      r6    -0.0026
   9182 C            0.1826     7.3723     9.3273 C       7      r7     0.0020
   9183 H            0.4717     7.9823     7.3531 H       0      r0     0.0249
   9184 C            0.5813     7.1574     7.9758 C       7      r7    -0.0213
   9185 C            1.1909    11.1616     7.9492 C       6      r6     0.0004
   9186 C            2.3563    11.0375     7.0745 C       6      r6    -0.0012
   9187 C            2.8971     9.2176    11.1138 C       5      r5    -0.0008
   9188 C            2.7048     7.7906    11.2290 C       5      r5    -0.0029
   9189 C            3.4572     7.9551     7.7068 C       5      r5    -0.0003
   9190 C            3.7661     9.4390     9.9356 C       5      r5    -0.0000
   9191 C            3.5632     7.1719    10.2081 C       5      r5     0.0045
   9192 C            3.8085     8.2284     9.1683 C       5      r5    -0.0018
   9193 C            3.8266    10.9081     7.3302 C       6      r6     0.0004
   9194 C            4.1677    10.8792     9.7951 C       6      r6    -0.0006
   9195 C            6.8297    10.6410     7.3483 C       5      r5     0.0004
   9196 C            7.2892    10.7891    11.2252 C       5      r5    -0.0004
   9197 C            7.3116     8.0226    11.0189 C       7      r7    -0.0010
   9198 C            8.1948    11.1670     6.8403 C       7      r7     0.0005
   9199 C            8.2174    10.1422    10.3300 C       7      r7     0.0007
   9200 C            8.4304     8.7062    10.3388 C       7      r7     0.0004
   9201 C            8.9027    10.9763     9.3401 C       7      r7     0.0012
   9202 C            9.1589    10.6746     7.9112 C       7      r7     0.0003
   9203 C            9.4931     7.9995     9.6344 C       7      r7     0.0007
   9204 C            9.9421     9.4967     7.4756 C       7      r7    -0.0005
   9205 C           10.1809     8.3765     8.3766 C       7      r7    -0.0009
   9206 C           10.2510     6.9163    10.2535 C       7      r7    -0.0004
   9207 C           11.0088     7.2443     8.0216 C       7      r7    -0.0000
   9208 C           12.5515    11.2272     7.8180 C       6      r6    -0.0007
   9209 C           12.9493    11.2671    10.3329 C       6      r6    -0.0003
   9210 C           13.5068     9.9011    10.2641 C       6      r6    -0.0009
   9211 C           13.6841    10.2388     7.7564 C       7      r7     0.0002
   9212 C           14.0235     9.4556     8.9869 C       7      r7    -0.0001
   9213 C           14.0849     7.6922    11.2058 C       6      r6     0.0003
   9214 C           14.1960     7.1598     9.8049 C       6      r6    -0.0088
   9215 C           14.6251     8.1344     8.8164 C       7      r7     0.0025
   9216 C           15.5511     7.6497     7.7321 C       7      r7    -0.0415
   9217 C           18.6720     9.2370    10.4921 C       7      r7    -0.0010
   9218 C           18.6837     7.8801    10.1269 C       5      r5     0.0052
   9219 C           19.3685    11.0319     8.6639 C       7      r7     0.0002
   9220 C           19.6041    10.0668     7.6594 C       7      r7     0.0039
   9221 C           19.5073    10.3679     9.9800 C       7      r7    -0.0026
   9222 C           19.7465     7.4146     9.1736 C       7      r7     0.0165
   9223 C           20.5535    10.5645    10.9963 C       7      r7    -0.0009
   9224 C           20.9453     9.3930     7.9905 C       7      r7    -0.0014
   9225 C           20.9882     8.0441     8.6381 C       7      r7     0.0042
   9226 C           22.1297     9.9313     8.4485 C       7      r7     0.0065
   9227 C           22.3446     7.3688     8.6691 C       7      r7     0.0160
   9228 C           22.9246     9.3773    11.4283 C       5      r5     0.0019
   9229 C           23.2889     7.6562     9.6930 C       7      r7     0.0225
   9230 C           23.3259    10.1987     8.9637 C       7      r7     0.0041
   9231 C           23.6416     9.1018    10.0882 C       7      r7    -0.0065
   9232 C           24.6036    10.9289     8.7378 C       7      r7    -0.0009
   9233 C           25.1292     6.8456    11.2820 C       7      r7     0.0029
   9234 C           25.1390     9.2800    10.7616 C       7      r7     0.0007
   9235 C          -24.9215    13.0089     7.4039 C       7      r7     0.0125
   9236 C          -24.6669    15.6711     8.1562 C       7      r7    -0.0023
   9237 C          -24.1615    14.1803     7.8122 C       7      r7     0.0013
   9238 C          -23.1082    15.1033    11.3917 C       7      r7    -0.0014
   9239 C          -22.8739    15.2494     9.9286 C       7      r7    -0.0007
   9240 C          -22.8345    11.5397    11.2712 C       7      r7    -0.0014
   9241 C          -22.7252    13.9456     7.7933 C       6      r6    -0.0023
   9242 C          -22.0204    14.4057     8.9952 C       7      r7     0.0003
   9243 C          -21.5206    11.9097    10.7393 C       6      r6     0.0007
   9244 C          -20.9178    13.2104    10.7984 C       7      r7    -0.0005
   9245 C          -20.8071    13.7361     9.4449 C       7      r7    -0.0012
   9246 C          -19.8365    12.9634     8.5771 C       7      r7    -0.0014
   9247 C          -19.6783    11.6256     9.0254 C       7      r7    -0.0011
   9248 C          -19.1982    15.6939     9.5390 C       7      r7    -0.0005
   9249 C          -18.8555    15.1780     8.2056 C       6      r6    -0.0006
   9250 C          -18.8206    13.7516     7.8631 C       7      r7    -0.0014
   9251 C          -18.4502    15.0891    10.5797 C       7      r7    -0.0013
   9252 C          -17.8203    13.3030     6.9063 C       7      r7    -0.0026
   9253 C          -17.4296    11.5352     8.3712 C       7      r7     0.0070
   9254 C          -17.1766    14.2935    10.7464 C       7      r7    -0.0027
   9255 C          -16.8861    12.1673     7.3512 C       7      r7    -0.0028
   9256 C          -16.1254    15.0322    10.0290 C       7      r7     0.0032
   9257 C          -15.6951    12.3038    11.3900 C       7      r7     0.0039
   9258 C          -15.3187    14.3563     8.9861 C       7      r7    -0.0180
   9259 C          -14.8485    12.1165    10.2154 C       7      r7    -0.0418
   9260 C          -14.8570    13.0100     9.0202 C       7      r7     0.0370
   9261 C          -14.7116    15.3064     8.0535 C       5      r5     0.0399
   9262 C          -14.3639    12.7821     7.5917 C       6      r6     0.0391
   9263 C          -13.8191    15.1590     6.9191 C       6      r6    -0.0599
   9264 C          -13.4660    13.7425     6.8389 C       6      r6     0.0114
   9265 C          -12.1647    14.8795    10.2514 C       6      r6     0.0027
   9266 C          -11.8042    13.6890    11.0140 C       7      r7     0.0085
   9267 C          -11.3381    15.1412     9.0535 C       6      r6     0.0019
   9268 C          -11.0666    13.4079     7.2489 C       0      r0     0.0130
   9269 C          -10.6616    13.9270     8.5360 C       6      r6     0.0041
   9270 C          -10.3282    13.2537    10.9622 C       7      r7     0.0001
   9271 C           -9.8946    13.1726     9.6130 C       7      r7     0.0063
   9272 C           -8.5740    15.6850     8.3425 C       5      r5    -0.0020
   9273 C           -8.4920    12.7275     9.5055 C       7      r7    -0.0012
   9274 C           -7.9781    11.5987    10.4152 C       7      r7     0.0010
   9275 C           -7.7017    15.1121     9.3291 C       6      r6    -0.0014
   9276 C           -7.4015    13.6160     9.3730 C       0      r0    -0.0003
   9277 C           -6.0106    13.1568     9.7289 C       0      r0     0.0010
   9278 C           -5.0610    12.9433    10.2885 C       0      r0     0.0011
   9279 C           -4.3455    15.1812     7.0811 C       6      r6     0.0002
   9280 C           -3.8293    12.7324    11.2097 C       0      r0     0.0022
   9281 C           -2.9132    15.0327     7.3604 C       6      r6    -0.0010
   9282 C           -2.3074    15.9554    10.8144 C       5      r5     0.0001
   9283 C           -2.2665    12.6793    11.3433 C       6      r6     0.0007
   9284 C           -2.5408    13.6559     7.6504 C       5      r5    -0.0021
   9285 C           -2.0754    11.5575     8.5780 C       5      r5     0.0015
   9286 C           -1.4426    11.5236    10.9473 C       7      r7     0.0005
   9287 C           -1.6362    12.9765     8.5725 C       5      r5    -0.0003
   9288 C           -1.4347    14.8352    10.6782 C       0      r0     0.0010
   9289 C           -0.3150    14.6184     9.6945 C       6      r6     0.0002
   9290 C           -0.2748    13.3694     9.0184 C       6      r6    -0.0003
   9291 C            0.9757    15.3700     9.6617 C       6      r6    -0.0001
   9292 C            0.8803    12.5585     8.5162 C       6      r6    -0.0006
   9293 C            2.2983    14.7912     9.1621 C       6      r6     0.0002
   9294 C            2.0524    13.4462     8.5501 C       6      r6    -0.0008
   9295 C            3.9549    11.8495    10.8928 C       6      r6    -0.0005
   9296 C            4.1591    15.7291     7.7324 C       6      r6    -0.0005
   9297 C            4.6679    11.2877     8.4675 C       6      r6     0.0008
   9298 C            4.6812    13.1463    10.9544 C       6      r6     0.0010
   9299 C            5.2819    14.8777     7.5670 C       7      r7    -0.0002
   9300 C            6.1512    11.4065     8.3445 C       5      r5     0.0005
   9301 C            6.1055    13.1767    10.5902 C       0      r0     0.0004
   9302 C            6.3408    15.0449     8.5984 C       7      r7     0.0006
   9303 C            6.5742    13.6880     9.3438 C       7      r7     0.0006
   9304 C            6.8767    12.6784     8.3600 C       7      r7     0.0005
   9305 C            7.6345    12.8472     7.0419 C       7      r7     0.0002
   9306 C            8.5273    12.8124    10.9938 C       7      r7     0.0003
   9307 C            8.5343    14.0556     6.9253 C       6      r6     0.0007
   9308 C            9.0670    12.3741     9.7214 C       7      r7    -0.0002
   9309 C            9.7713    13.8682     7.6307 C       6      r6    -0.0002
   9310 C           10.0240    13.1552     8.8250 C       7      r7     0.0000
   9311 C           10.3933    14.4561    11.2449 C       7      r7    -0.0005
   9312 C           10.9368    14.7858     7.0057 C       5      r5    -0.0004
   9313 C           11.3223    12.8786     9.4766 C       7      r7     0.0008
   9314 C           11.4609    13.5330    10.7858 C       7      r7    -0.0000
   9315 C           12.0726    15.0135     7.9546 C       5      r5     0.0006
   9316 C           12.2666    11.7630     9.1442 C       6      r6    -0.0005
   9317 C           13.3119    14.3088     8.0117 C       5      r5     0.0018
   9318 C           14.4905    14.8332     8.7737 C       5      r5     0.0005
   9319 C           15.6490    14.3367     8.0398 C       7      r7    -0.0019
   9320 C           17.2149    14.4737     7.9906 C       7      r7     0.0004
   9321 C           17.2458    15.1146    10.5014 C       7      r7    -0.0030
   9322 C           17.8940    14.5459     9.3807 C       5      r5     0.0017
   9323 C           17.8599    13.0492     7.6089 C       7      r7    -0.0006
   9324 C           17.7487    15.6237     7.0514 C       7      r7    -0.0003
   9325 C           18.4706    13.2392    11.1347 C       5      r5    -0.0021
   9326 C           18.7349    13.4131     9.6751 C       5      r5     0.0030
   9327 C           18.7760    12.4438     8.5276 C       7      r7     0.0027
   9328 C           22.1920    14.4222    11.1222 C       7      r7    -0.0471
   9329 C           22.6890    15.1757    10.0794 C       7      r7     0.2416
   9330 C           23.6857    14.6557     9.1940 C       7      r7    -0.0371
   9331 C           24.2189    12.8588    10.8472 C       6      r6    -0.0090
   9332 C           24.1181    13.2547     9.4364 C       7      r7     0.0150
   9333 C           24.2242    15.5485     8.1834 C       7      r7     0.0376
   9334 C           24.6876    12.3456     8.4309 C       7      r7     0.0179
   9335 C           24.8862    11.7272    11.4206 C       7      r7     0.0003
   9336 C          -25.1556    18.1392    10.8403 C       7      r7     0.0045
   9337 C          -24.7417    19.2611    10.0422 C       5      r5     0.0007
   9338 C          -24.5852    16.7774    10.6409 C       7      r7     0.0041
   9339 C          -24.0918    16.4410     6.9760 C       7      r7    -0.0007
   9340 C          -23.9544    19.9806     8.1433 C       7      r7    -0.0012
   9341 C          -23.8891    16.1440     9.5371 C       5      r5    -0.0011
   9342 C          -23.5006    19.1375     7.0363 C       7      r7    -0.0024
   9343 C          -23.4746    19.6094     9.4311 C       5      r5     0.0022
   9344 C          -22.3925    18.2578     7.3002 C       7      r7    -0.0014
   9345 C          -22.0614    19.1131     9.7170 C       6      r6    -0.0011
   9346 C          -21.5063    18.4474     8.4676 C       6      r6    -0.0019
   9347 C          -21.3576    18.8420    10.9018 C       5      r5    -0.0010
   9348 C          -20.7295    17.5475    10.7940 C       7      r7     0.0001
   9349 C          -20.3426    17.5840     8.3952 C       6      r6    -0.0001
   9350 C          -20.1318    16.8672     9.6473 C       7      r7     0.0002
   9351 C          -19.5937    17.3134     7.1433 C       6      r6     0.0006
   9352 C          -18.6069    16.1937     7.1666 C       6      r6     0.0000
   9353 C          -17.8109    20.0632    11.3062 C       5      r5    -0.0022
   9354 C          -17.2390    19.8526     6.8023 C       5      r5    -0.0050
   9355 C          -16.7339    20.0570    10.3176 C       5      r5     0.0015
   9356 C          -16.7290    17.6153    10.2484 C       6      r6    -0.0065
   9357 C          -16.3106    18.8727     9.5890 C       6      r6     0.0073
   9358 C          -16.2032    16.4121     9.6508 C       5      r5     0.0077
   9359 C          -15.8666    19.9541     7.3794 C       0      r0     0.0335
   9360 C          -15.4578    18.9037     8.3510 C       6      r6    -0.0436
   9361 C          -15.1602    16.6042     8.5030 C       5      r5    -0.0600
   9362 C          -14.7752    17.7655     7.8690 C       6      r6     0.2367
   9363 C          -13.2190    18.4242    11.3950 C       6      r6    -0.0006
   9364 C          -12.8917    19.8179    11.3052 C       6      r6     0.0016
   9365 C          -12.8096    15.9849    10.8982 C       6      r6    -0.0011
   9366 C          -12.6644    17.3833    10.5408 C       6      r6     0.0005
   9367 C          -11.7712    20.0387    10.4562 C       6      r6     0.0027
   9368 C          -11.5730    17.6213     9.6342 C       7      r7     0.0112
   9369 C          -10.9596    19.0754     9.5952 C       7      r7    -0.0002
   9370 C          -10.8748    19.6459     8.0849 C       7      r7     0.0146
   9371 C          -10.8885    16.5156     9.1503 C       7      r7     0.0005
   9372 C          -10.2371    18.8546     7.0880 C       7      r7     0.0155
   9373 C           -9.7267    17.4617     7.1536 C       7      r7     0.0040
   9374 C           -9.5485    18.8553    10.3334 C       7      r7    -0.0028
   9375 C           -9.4373    16.8880     8.5835 C       7      r7    -0.0019
   9376 C           -8.7935    17.8646     9.7252 C       7      r7    -0.0020
   9377 C           -7.5485    17.4413    10.2984 C       7      r7    -0.0011
   9378 C           -7.3215    15.9524    10.5388 C       7      r7    -0.0007
   9379 C           -6.5278    18.4949    10.6647 C       7      r7    -0.0001
   9380 C           -6.3144    19.4667     9.8243 C       0      r0     0.0006
   9381 C           -5.9740    20.3621     8.9974 C       0      r0     0.0018
   9382 C           -5.1257    16.3441     7.5526 C       7      r7     0.0009
   9383 C           -4.6192    19.9164     8.5096 C       6      r6     0.0012
   9384 C           -4.6259    17.4215     8.3827 C       7      r7     0.0017
   9385 C           -4.6803    18.7213     7.6411 C       7      r7     0.0001
   9386 C           -4.2266    17.4197    11.0612 C       5      r5     0.0008
   9387 C           -3.7817    17.4390     9.6460 C       5      r5     0.0015
   9388 C           -2.4913    16.7866     9.6343 C       5      r5     0.0003
   9389 C           -1.2715    17.2128     8.8171 C       0      r0     0.0001
   9390 C           -1.0362    20.0004     9.8250 C       7      r7    -0.0003
   9391 C           -1.1324    16.8450     7.4788 C       5      r5    -0.0034
   9392 C           -0.0718    18.9590    10.2893 C       6      r6     0.0012
   9393 C           -0.0629    17.7145     9.5246 C       6      r6    -0.0002
   9394 C            0.2930    19.8011     7.8551 C       0      r0    -0.0023
   9395 C            0.8246    18.7192     7.1434 C       5      r5     0.0021
   9396 C            0.9776    16.7677     9.9592 C       6      r6    -0.0000
   9397 C            1.1302    19.4433    10.9317 C       6      r6     0.0004
   9398 C            2.2764    17.2979    10.4455 C       6      r6     0.0003
   9399 C            2.1928    18.1501     7.1251 C       5      r5     0.0004
   9400 C            3.4682    15.6386     9.0480 C       6      r6    -0.0000
   9401 C            3.4170    18.8753     7.0180 C       7      r7     0.0035
   9402 C            3.5759    16.7772     9.9720 C       6      r6    -0.0001
   9403 C            4.6680    18.9364    10.7020 C       6      r6    -0.0000
   9404 C            4.7371    17.6760    10.0818 C       6      r6     0.0008
   9405 C            4.8613    18.5298     6.9172 C       7      r7     0.0006
   9406 C            5.4968    20.0547    10.1448 C       6      r6     0.0000
   9407 C            5.3501    20.0349     8.6793 C       7      r7    -0.0009
   9408 C            5.6442    18.7618     8.0980 C       7      r7     0.0001
   9409 C            5.8964    17.6044     9.1412 C       6      r6     0.0014
   9410 C            6.2141    16.3152     8.9999 C       0      r0    -0.0005
   9411 C            8.0020    20.2320     6.8531 C       6      r6     0.0002
   9412 C            8.5841    18.9386     7.2469 C       7      r7     0.0016
   9413 C            9.1372    20.0545     9.4657 C       5      r5    -0.0002
   9414 C            9.3784    18.9804     8.4966 C       7      r7     0.0014
   9415 C            9.7705    20.2791    10.7597 C       5      r5     0.0006
   9416 C           10.1835    16.1916     7.2271 C       7      r7     0.0001
   9417 C           10.3652    18.0872     9.0153 C       7      r7    -0.0002
   9418 C           10.7041    16.8183     8.3911 C       7      r7    -0.0005
   9419 C           11.1514    18.5153    10.1693 C       5      r5     0.0000
   9420 C           11.8413    16.0395     8.9281 C       5      r5     0.0002
   9421 C           12.1812    16.1188    11.4293 C       7      r7    -0.0001
   9422 C           12.5819    18.6083    10.1848 C       5      r5     0.0004
   9423 C           12.7808    16.1256    10.0937 C       6      r6     0.0006
   9424 C           13.6014    18.5357     9.1256 C       6      r6     0.0006
   9425 C           14.0137    19.9026     8.7766 C       6      r6    -0.0001
   9426 C           14.1440    16.1171     9.5235 C       6      r6     0.0002
   9427 C           14.3758    17.3369     8.7968 C       6      r6     0.0007
   9428 C           15.2811    20.1004     8.0994 C       5      r5    -0.0002
   9429 C           15.7388    17.7434     8.3992 C       6      r6    -0.0011
   9430 C           15.8626    18.8619     7.3527 C       5      r5    -0.0008
   9431 C           16.5384    16.4071    10.6088 C       7      r7    -0.0025
   9432 C           16.7140    17.4325     9.3688 C       6      r6    -0.0018
   9433 C           17.4714    19.4505     7.1324 C       5      r5    -0.0025
   9434 C           18.0233    17.9452     9.1028 C       6      r6    -0.0056
   9435 C           18.4191    19.0452     8.3020 C       6      r6     0.0014
   9436 C           19.0673    16.2436     7.1326 C       7      r7     0.0076
   9437 C           19.0880    16.9368     9.5429 C       0      r0     0.0188
   9438 C           19.6745    17.1248    10.8454 C       5      r5     0.0335
   9439 C           19.7797    19.4880     8.3433 C       6      r6     0.0004
   9440 C           19.7870    16.3502     8.4563 C       6      r6    -0.0458
   9441 C           20.3776    19.5989     6.9784 C       6      r6    -0.0016
   9442 C           20.5350    19.3075    10.8846 C       6      r6     0.0227
   9443 C           20.6821    19.6580     9.4855 C       6      r6     0.0129
   9444 C           21.2108    16.2440     8.5290 C       7      r7     0.2429
   9445 C           22.0098    20.2508     9.1561 C       7      r7     0.0131
   9446 C           21.8309    15.9646     7.3397 C       7      r7    -0.0128
   9447 O           21.9766    16.4818     9.7912 O       7      r7    -0.5193
   9448 C           22.2736    20.4653     7.7647 C       7      r7    -0.0042
   9449 C           23.0574    19.3302    11.2940 C       6      r6     0.0243
   9450 C           23.2193    19.9892     9.9862 C       7      r7     0.0217
   9451 C           23.3633    16.1877     7.2860 C       7      r7     0.0495
   9452 C           24.5830    20.0045     9.4650 C       7      r7     0.0056
   9453 O          -24.9033    24.8733    11.1001 O       5      r5    -0.4862
   9454 C          -24.7846    24.7823     9.6265 C       5      r5     0.2432
   9455 C          -20.9350    24.0495    11.3143 C       7      r7     0.0067
   9456 C          -20.4519    24.3968     9.9533 C       7      r7     0.0029
   9457 C          -19.3379    24.0704     9.0567 C       5      r5    -0.0011
   9458 C          -18.6639    22.0383     7.7167 C       5      r5    -0.0015
   9459 C          -18.5677    22.8307     8.9049 C       6      r6    -0.0019
   9460 C          -18.6984    21.2269    11.0698 C       5      r5    -0.0015
   9461 C          -18.4691    20.6229     7.2451 C       5      r5     0.0000
   9462 C          -18.0324    22.0839    10.0790 C       5      r5    -0.0031
   9463 C          -17.4091   -24.9015    11.0610 C       5      r5    -0.0026
   9464 C          -16.7605    21.4770     9.7979 C       5      r5    -0.0009
   9465 C          -16.1452    24.3259    11.1789 C       5      r5    -0.0019
   9466 C          -15.6248    22.3005     9.4364 C       5      r5     0.0014
   9467 C          -15.4980    23.6203    10.0041 C       5      r5    -0.0014
   9468 C          -15.2058    21.2099     7.0155 C       6      r6     0.0082
   9469 C          -15.0753    22.1933     8.0811 C       5      r5     0.0011
   9470 C          -14.8995    24.4083     8.9316 C       7      r7     0.0010
   9471 C          -14.6437    23.5432     7.7587 C       7      r7     0.0013
   9472 C          -12.0260    22.4768    11.0100 C       5      r5     0.0003
   9473 C          -11.4114    23.7043    10.4677 C       5      r5    -0.0006
   9474 C          -11.4276    21.3956    10.2822 C       5      r5     0.0007
   9475 C          -11.0781    21.0280     7.8134 C       7      r7     0.0067
   9476 C          -10.9602    23.4018     9.1158 C       5      r5    -0.0005
   9477 C          -10.8298    24.1329     7.9252 C       6      r6    -0.0012
   9478 C          -10.6008    21.8613     9.0152 C       5      r5    -0.0016
   9479 C           -9.0466    21.5504     9.0790 C       5      r5    -0.0016
   9480 C           -8.1922    21.2407     8.0124 C       5      r5    -0.0007
   9481 C           -8.1246    22.1636    10.0338 C       5      r5    -0.0004
   9482 C           -8.0351    21.6189    11.3863 C       6      r6    -0.0002
   9483 C           -6.9972    22.7333     9.1424 C       5      r5    -0.0006
   9484 C           -6.7441    21.6225     8.2301 C       5      r5     0.0002
   9485 C           -6.3648    24.0037     9.3637 C       6      r6    -0.0009
   9486 C           -4.8774    23.8858     9.5978 C       6      r6     0.0009
   9487 C           -4.7612    24.1484    11.0714 C       6      r6     0.0007
   9488 C           -3.6807    23.4962     8.8223 C       0      r0    -0.0014
   9489 C           -3.4539    20.7357     8.3987 C       6      r6    -0.0021
   9490 C           -3.1857    24.1807     7.5662 C       5      r5    -0.0046
   9491 C           -3.0058    21.0539     7.0329 C       6      r6    -0.0009
   9492 C           -2.9162    21.2670     9.6880 C       7      r7     0.0010
   9493 C           -2.5886    22.6418     9.4094 C       7      r7    -0.0012
   9494 C           -2.1090    20.5062    10.6721 C       7      r7     0.0017
   9495 C           -1.2462    23.0030     9.8324 C       7      r7    -0.0014
   9496 C           -1.2782    23.6303    11.2063 C       0      r0     0.0023
   9497 C           -0.4726    20.7464     8.6727 C       7      r7    -0.0030
   9498 C           -0.2523    22.1438     9.1628 C       7      r7    -0.0033
   9499 C            0.5665    24.7256     7.8628 C       7      r7    -0.0051
   9500 C            1.0606    22.7207     9.4431 C       6      r6    -0.0027
   9501 C            1.3432    20.9019    11.2185 C       7      r7     0.0007
   9502 C            1.5005    23.9203     8.7274 C       7      r7     0.0034
   9503 C            1.9062    22.0486    10.4258 C       7      r7     0.0003
   9504 C            2.6666    22.4299     7.1480 C       7      r7    -0.0061
   9505 C            2.7508    23.4355     8.2304 C       7      r7    -0.0045
   9506 C            3.2496    22.4687    10.4960 C       7      r7     0.0026
   9507 C            3.6818    23.3463     9.3920 C       7      r7     0.0040
   9508 C            3.6626    21.3775     7.1950 C       7      r7    -0.0004
   9509 C            5.0397    23.6220     8.9368 C       7      r7     0.0040
   9510 C            4.8321    21.3000     8.0797 C       7      r7    -0.0028
   9511 C            5.4977    21.2751    10.9645 C       0      r0    -0.0006
   9512 C            5.7936    24.8015     9.4570 C       5      r5    -0.0271
   9513 C            5.6107    22.5115     8.0895 C       7      r7    -0.0028
   9514 C            5.9663    24.7290    10.9227 C       5      r5    -0.0421
   9515 C            6.6045    22.2247    11.0355 C       0      r0     0.0008
   9516 C            7.0816    22.4974     7.7285 C       0      r0     0.0005
   9517 C            7.6566    21.1805     7.8852 C       6      r6    -0.0005
   9518 C            7.8936    21.8053    10.4659 C       5      r5    -0.0007
   9519 C            8.0082    20.9580     9.2894 C       5      r5     0.0010
   9520 C            9.0930    21.3973    11.2819 C       5      r5    -0.0015
   9521 C            9.7379    24.4341     7.1606 C       7      r7    -0.0003
   9522 C           11.1567    24.1972     7.4382 C       7      r7    -0.0012
   9523 C           11.5245    24.3489     8.8543 C       7      r7    -0.0008
   9524 C           11.9573    21.7974     7.0903 C       6      r6     0.0005
   9525 C           12.2665    23.1948     9.3073 C       5      r5     0.0000
   9526 C           12.3011    21.9133     8.5062 C       5      r5     0.0007
   9527 C           12.8903    23.0531    10.5942 C       5      r5     0.0008
   9528 C           13.2892    21.1310     9.2484 C       5      r5     0.0009
   9529 C           13.6338    21.7792    10.4792 C       5      r5     0.0007
   9530 C           14.4442    21.0671    11.4615 C       5      r5    -0.0007
   9531 C           14.8737    23.5210     7.4639 C       0      r0     0.0006
   9532 C           15.6722    22.7649     8.3298 C       6      r6    -0.0005
   9533 C           15.9667    21.3145     7.8243 C       5      r5    -0.0007
   9534 C           16.3450    23.7631    11.0184 C       7      r7    -0.0001
   9535 C           17.0695    21.0060     6.9490 C       5      r5    -0.0002
   9536 C           16.9930    23.3527     8.5300 C       7      r7    -0.0009
   9537 C           17.3387    23.5517     9.9445 C       7      r7     0.0012
   9538 C           17.9294    23.2349     7.3641 C       7      r7    -0.0003
   9539 C           18.7649    23.5385    10.3268 C       7      r7    -0.0005
   9540 C           19.0759    24.1307     7.1358 C       7      r7    -0.0009
   9541 C           19.6141    24.8017     8.3054 C       7      r7     0.0006
   9542 C           19.8526    23.7906     9.3982 C       7      r7    -0.0065
   9543 C           20.6569    22.9386    11.2781 C       5      r5     0.2547
   9544 C           21.0910    23.3022     9.9417 C       5      r5    -0.0435
   9545 C           22.3586    23.3848     9.1453 C       6      r6     0.0329
   9546 C           22.6437    23.0310     7.7486 C       6      r6    -0.0036
   9547 C           23.0761    21.6854     7.3441 C       7      r7     0.0003
   9548 C           23.2749    23.9941     6.8032 C       6      r6    -0.0017
   9549 C           23.5695    23.9224     9.6644 C       5      r5    -0.0239
   9550 C           24.0710    24.4116    11.0044 C       5      r5     0.2220
   9551 C           24.4799    21.3121     7.1635 C       7      r7    -0.0007
   9552 C           24.5130    24.5788     7.3281 C       6      r6     0.0110
   9553 C           24.6244    24.3585     8.8041 C       5      r5    -0.0531
   9554 C           25.1310    20.5301     8.2224 C       7      r7     0.0019
   9555 C          -25.0392   -23.1200    14.8260 C       7      r7     0.0070
   9556 C          -24.9285   -22.1114    12.5213 C       6      r6     0.0311
   9557 C          -24.5800   -24.4809    14.9177 C       7      r7     0.0024
   9558 C          -23.8813   -20.6242    14.0646 C       6      r6    -0.0025
   9559 C          -23.6639   -21.7596    13.1485 C       6      r6     0.0008
   9560 C          -22.4677   -22.6939    13.0460 C       5      r5    -0.0002
   9561 C          -22.1261   -23.4032    11.8430 C       7      r7     0.0131
   9562 C          -21.6385   -24.7365    12.0585 C       7      r7     0.0150
   9563 C          -21.4144   -23.1916    13.9328 C       5      r5     0.0312
   9564 C          -21.3759   -24.6022    13.4669 C       5      r5     0.0282
   9565 C          -20.9502   -20.6768    12.4145 C       7      r7    -0.0025
   9566 C          -20.8988   -20.9502    13.8538 C       0      r0    -0.0061
   9567 C          -20.2487   -22.2471    14.0976 C       0      r0     0.0288
   9568 C          -19.6364   -20.6781    11.7503 C       7      r7    -0.0023
   9569 C          -18.9220   -22.6432    13.5788 C       6      r6     0.0075
   9570 C          -18.7835   -23.3861    12.3337 C       5      r5    -0.0035
   9571 C          -17.7810   -24.4449    12.3741 C       5      r5     0.0026
   9572 C          -17.5637   -22.4381    14.2076 C       7      r7     0.0071
   9573 C          -16.9868   -21.3400    14.9809 C       7      r7     0.0006
   9574 C          -16.4493   -24.4004    13.0388 C       7      r7    -0.0001
   9575 C          -16.4091   -23.3466    14.0340 C       7      r7     0.0009
   9576 C          -15.1237   -23.1392    14.7113 C       7      r7    -0.0006
   9577 C          -14.0005   -23.1669    13.7478 C       7      r7    -0.0011
   9578 C          -13.5340   -22.1768    12.7057 C       6      r6     0.0002
   9579 C          -13.4277   -24.5413    13.6810 C       7      r7     0.0005
   9580 C          -12.8192    24.9746    14.9922 C       7      r7    -0.0007
   9581 C          -12.4468   -20.4979    16.0684 C       5      r5     0.0005
   9582 C          -12.2163   -21.6456    12.6663 C       7      r7     0.0007
   9583 C          -11.6223   -21.2466    11.3352 C       7      r7     0.0009
   9584 C          -11.4435   -24.6934    15.1151 C       5      r5     0.0003
   9585 C          -11.1205   -22.3008    13.4357 C       7      r7     0.0002
   9586 C          -10.9820   -23.5988    12.8276 C       7      r7     0.0008
   9587 C          -10.6386   -24.9055    13.7383 C       5      r5     0.0011
   9588 C          -10.4820   -23.8292    11.5303 C       7      r7    -0.0003
   9589 C          -10.1844   -21.2116    11.2936 C       7      r7    -0.0004
   9590 C          -10.0152   -21.2333    15.4252 C       7      r7     0.0009
   9591 C           -9.9312   -21.6512    14.0178 C       7      r7     0.0002
   9592 C           -9.1580   -24.7857    14.1331 C       5      r5     0.0005
   9593 C           -9.1263   -24.4021    15.4985 C       5      r5     0.0002
   9594 C           -8.5645   -21.7923    13.3778 C       7      r7    -0.0005
   9595 C           -8.3150   -22.4871    12.1365 C       7      r7    -0.0011
   9596 C           -7.7719   -20.7615    15.6118 C       7      r7     0.0013
   9597 C           -7.5010   -21.3323    14.2642 C       7      r7     0.0000
   9598 C           -6.9996   -22.8427    11.5307 C       7      r7    -0.0005
   9599 C           -6.7428   -24.8162    14.0415 C       6      r6     0.0014
   9600 C           -6.1438   -21.2572    13.7687 C       7      r7     0.0004
   9601 C           -5.8439   -21.9404    11.1626 C       7      r7    -0.0008
   9602 C           -5.6442   -21.0746    12.2699 C       7      r7    -0.0012
   9603 C           -5.4687   -24.7810    13.3052 C       6      r6     0.0008
   9604 C           -5.0954   -21.0182    14.7442 C       7      r7     0.0010
   9605 C           -4.8355   -21.9160    15.8497 C       7      r7    -0.0002
   9606 C           -4.2872   -24.5747    14.0981 C       6      r6     0.0001
   9607 C           -4.2806   -20.5930    12.0608 C       7      r7     0.0006
   9608 C           -4.1378   -24.6889    15.6028 C       7      r7    -0.0009
   9609 C           -3.8088   -22.9870    16.0103 C       7      r7     0.0005
   9610 C           -3.0500   -24.2456    13.3421 C       6      r6    -0.0000
   9611 C           -2.7079   -22.4646    15.0060 C       5      r5    -0.0003
   9612 C           -2.4352   -23.0214    13.7549 C       5      r5    -0.0018
   9613 C           -2.1600   -21.1440    14.9628 C       5      r5    -0.0009
   9614 C           -1.5601   -22.0894    12.7300 C       5      r5    -0.0006
   9615 C           -1.4051   -20.7959    13.7308 C       5      r5     0.0008
   9616 C           -0.5642   -23.8638    11.5021 C       5      r5     0.0052
   9617 C           -0.2757   -22.9229    12.5054 C       5      r5     0.0026
   9618 C           -0.1727   -20.2923    13.8504 C       0      r0     0.0007
   9619 C            0.4324   -24.5336    14.1815 C       6      r6    -0.0019
   9620 C            0.5548   -23.1733    13.6553 C       6      r6     0.0031
   9621 C            0.8134   -24.8186    15.5791 C       7      r7    -0.0026
   9622 C            0.8648   -22.3203    14.6810 C       6      r6    -0.0010
   9623 C            1.8279   -21.2945    14.4725 C       6      r6     0.0002
   9624 C            3.1504   -21.6212    14.1246 C       5      r5     0.0052
   9625 C            3.9334   -20.6822    13.3133 C       5      r5     0.0105
   9626 C            4.1398   -22.6251    14.5835 C       7      r7    -0.0058
   9627 C            4.7228   -22.9811    15.9240 C       7      r7     0.0003
   9628 C            5.1389   -22.5578    13.5280 C       7      r7     0.0323
   9629 C            5.3378   -21.1287    13.2092 C       5      r5     0.0235
   9630 C            5.7688   -24.9597    13.6531 C       7      r7     0.0044
   9631 C            5.6309   -23.7897    12.8616 C       7      r7    -0.0423
   9632 C            5.6540   -24.0238    11.4834 C       5      r5     0.2417
   9633 C            7.5487   -20.6574    14.5873 C       5      r5     0.0024
   9634 C            8.5835   -21.6878    14.4247 C       5      r5     0.0015
   9635 C            8.7853   -22.7330    13.4481 C       5      r5     0.0010
   9636 C            8.6396   -22.9595    12.0063 C       5      r5     0.0044
   9637 C            9.2725   -24.2372    11.6637 C       5      r5    -0.0018
   9638 C            9.5941   -21.5611    15.4534 C       7      r7    -0.0006
   9639 C            9.5460   -23.8975    13.9207 C       5      r5    -0.0013
   9640 C            9.7478   -24.8759    12.8601 C       5      r5    -0.0008
   9641 C           10.3715   -23.8974    15.0583 C       6      r6    -0.0006
   9642 C           10.4594   -22.6566    15.7738 C       7      r7    -0.0001
   9643 C           11.2192    24.9346    15.4031 C       6      r6    -0.0001
   9644 C           12.4255   -21.4043    12.9407 C       6      r6    -0.0011
   9645 C           12.7049   -22.3639    12.0125 C       0      r0    -0.0006
   9646 C           13.4456   -21.4504    15.5280 C       7      r7     0.0003
   9647 C           13.4701   -21.4972    14.0587 C       7      r7     0.0002
   9648 C           14.7774   -21.1887    13.4870 C       7      r7     0.0009
   9649 C           15.0825   -24.8455    12.4606 C       6      r6     0.0000
   9650 C           15.2059   -24.2760    14.9774 C       5      r5    -0.0004
   9651 C           15.6334   -23.0945    15.9330 C       7      r7    -0.0000
   9652 C           15.7347   -24.2341    13.6658 C       5      r5     0.0002
   9653 C           16.1371   -21.3299    13.8783 C       7      r7     0.0003
   9654 C           16.6086   -22.3242    14.9073 C       7      r7    -0.0002
   9655 C           16.9246   -23.3454    13.6786 C       5      r5    -0.0005
   9656 C           17.8264   -22.0038    15.8019 C       7      r7     0.0005
   9657 C           17.8024   -23.2487    12.6388 C       0      r0    -0.0012
   9658 C           18.8104   -23.2010    11.6239 C       0      r0    -0.0016
   9659 C           19.1198   -21.5630    15.4230 C       7      r7    -0.0010
   9660 C           19.2996   -20.5611    14.4590 C       7      r7    -0.0004
   9661 C           20.1021   -23.3115    12.0542 C       0      r0    -0.0005
   9662 C           21.4004   -24.7651    16.0129 C       7      r7    -0.0013
   9663 C           21.4022   -23.3682    12.4531 C       7      r7    -0.0048
   9664 C           21.5395   -21.0409    12.2594 C       0      r0    -0.0021
   9665 C           22.2398   -22.1002    12.7523 C       7      r7     0.0037
   9666 C           22.1865   -23.9190    15.1268 C       7      r7    -0.0037
   9667 C           22.1973   -24.7183    12.6301 C       7      r7     0.0284
   9668 C           22.8217   -22.5767    15.1423 C       7      r7    -0.0020
   9669 C           22.7805   -24.6521    13.9623 C       7      r7     0.0065
   9670 C           23.3008   -22.2059    13.8188 C       7      r7    -0.0022
   9671 C           24.7270   -22.5185    13.6550 C       6      r6     0.0061
   9672 C           25.0239   -20.9974    11.6299 C       6      r6    -0.0035
   9673 C          -25.0029   -18.9083    15.8131 C       6      r6    -0.0015
   9674 C          -24.8425   -19.5642    13.6101 C       6      r6    -0.0016
   9675 C          -23.0645   -20.3929    15.2454 C       5      r5     0.0062
   9676 C          -23.0152   -16.9212    15.7252 C       5      r5    -0.0016
   9677 C          -22.8767   -16.1126    11.9538 C       7      r7    -0.0001
   9678 C          -22.5398   -18.2635    16.0916 C       5      r5    -0.0007
   9679 C          -22.4219   -16.7721    14.4067 C       7      r7    -0.0017
   9680 C          -22.0659   -19.8875    11.7556 C       7      r7    -0.0003
   9681 C          -21.8887   -18.4212    12.0256 C       7      r7    -0.0013
   9682 C          -21.6610   -20.1319    14.8155 C       5      r5     0.0065
   9683 C          -21.5061   -18.7214    15.1620 C       5      r5    -0.0011
   9684 C          -21.2669   -17.6196    14.1985 C       7      r7    -0.0006
   9685 C          -20.6983   -17.9970    12.8494 C       7      r7    -0.0001
   9686 C          -19.3482   -18.2245    12.3770 C       7      r7    -0.0001
   9687 C          -18.2847   -17.1867    12.3034 C       5      r5     0.0004
   9688 C          -16.8630   -17.3603    12.3322 C       5      r5    -0.0004
   9689 C          -16.2563   -16.0930    11.9092 C       5      r5    -0.0002
   9690 C          -16.1750   -19.4566    13.4235 C       7      r7    -0.0007
   9691 C          -15.9732   -20.2762    14.4154 C       7      r7    -0.0013
   9692 C          -15.8775   -18.5149    12.4498 C       7      r7    -0.0001
   9693 C          -14.5695   -20.0806    15.0246 C       7      r7    -0.0012
   9694 C          -14.4004   -18.3681    12.0026 C       7      r7     0.0019
   9695 C          -13.6180   -19.2185    14.3359 C       7      r7    -0.0001
   9696 C          -13.4339   -18.8039    12.9212 C       7      r7     0.0017
   9697 C          -12.9944   -15.9660    13.5115 C       0      r0     0.0015
   9698 C          -12.4382   -19.2505    15.2124 C       7      r7     0.0016
   9699 C          -12.1140   -18.7960    12.2054 C       7      r7     0.0014
   9700 C          -11.6998   -16.0924    13.6578 C       6      r6     0.0005
   9701 C          -11.3623   -18.3356    15.2399 C       7      r7     0.0003
   9702 C          -10.9301   -17.5146    13.9972 C       7      r7     0.0009
   9703 C          -10.8578   -18.4484    12.7554 C       7      r7     0.0008
   9704 C           -9.6418   -18.7863    11.9866 C       7      r7    -0.0012
   9705 C           -9.4935   -17.0065    14.3136 C       7      r7    -0.0001
   9706 C           -8.6038   -17.3689    15.3812 C       6      r6    -0.0000
   9707 C           -8.6977   -17.7157    11.5598 C       7      r7    -0.0007
   9708 C           -8.5470   -16.3828    12.0710 C       7      r7     0.0000
   9709 C           -7.2913   -16.7086    15.5498 C       6      r6    -0.0007
   9710 C           -6.0645   -17.4775    15.5675 C       7      r7     0.0004
   9711 C           -5.9630   -18.8949    15.4157 C       7      r7     0.0013
   9712 C           -4.8478   -16.5773    15.6446 C       7      r7     0.0008
   9713 C           -4.6370   -19.4650    14.9072 C       7      r7     0.0020
   9714 C           -4.2125   -16.1928    14.3358 C       7      r7     0.0017
   9715 C           -4.1957   -18.6228    13.6456 C       7      r7     0.0020
   9716 C           -4.1844   -19.1482    12.3523 C       7      r7    -0.0018
   9717 C           -3.4611   -17.3772    13.7751 C       7      r7     0.0018
   9718 C           -2.1178   -17.2327    13.1276 C       6      r6     0.0020
   9719 C           -2.1782   -18.0176    11.9122 C       6      r6    -0.0005
   9720 C           -0.9948   -16.0269    15.9088 C       7      r7     0.0034
   9721 C           -0.7734   -16.8529    13.6804 C       7      r7     0.0013
   9722 C            0.1388   -17.7118    11.6326 C       6      r6    -0.0012
   9723 C            0.4248   -17.3092    12.9814 C       7      r7    -0.0025
   9724 C            1.1894   -20.0312    14.0030 C       6      r6     0.0014
   9725 C            1.7173   -17.5713    13.5890 C       7      r7     0.0000
   9726 C            2.1281   -18.9907    13.5459 C       6      r6     0.0011
   9727 C            2.7190   -16.5306    13.5488 C       7      r7    -0.0026
   9728 C            3.5518   -19.2661    13.3664 C       6      r6     0.0013
   9729 C            4.1453   -16.9434    13.6387 C       7      r7    -0.0008
   9730 C            4.6284   -18.3201    13.6134 C       7      r7     0.0005
   9731 C            5.9518   -18.8552    13.9661 C       7      r7     0.0026
   9732 C            6.4906   -16.0227    13.0062 C       7      r7    -0.0011
   9733 C            6.5155   -17.3388    15.8458 C       6      r6    -0.0014
   9734 C            6.2961   -20.2480    13.9186 C       6      r6    -0.0023
   9735 C            6.8860   -17.8476    14.5435 C       7      r7    -0.0015
   9736 C            7.4611   -16.9107    13.5110 C       7      r7     0.0003
   9737 C            8.6432   -18.6675    11.6051 C       7      r7     0.0016
   9738 C            8.8657   -16.6321    13.1828 C       7      r7    -0.0006
   9739 C            9.4320   -17.7224    12.4106 C       7      r7    -0.0008
   9740 C           10.7623   -17.3835    11.8543 C       7      r7    -0.0007
   9741 C           12.0725   -17.4226    12.5313 C       7      r7     0.0008
   9742 C           11.9824   -19.9962    12.3838 C       6      r6    -0.0005
   9743 C           12.3867   -18.6747    13.2656 C       6      r6     0.0002
   9744 C           13.1221   -16.4789    12.0795 C       7      r7     0.0008
   9745 C           13.3382   -20.0228    11.6625 C       5      r5    -0.0001
   9746 C           13.4848   -18.4328    14.1163 C       6      r6     0.0006
   9747 C           13.7552   -18.9189    15.6934 C       7      r7     0.0006
   9748 C           14.2647   -16.3186    12.9154 C       6      r6    -0.0000
   9749 C           14.5001   -17.5235    13.6859 C       6      r6    -0.0005
   9750 C           14.5313   -20.3049    12.2968 C       5      r5     0.0006
   9751 C           15.5244   -19.5350    11.6075 C       5      r5     0.0008
   9752 C           15.9307   -17.6834    14.1658 C       6      r6    -0.0001
   9753 C           16.0112   -17.7863    15.6727 C       7      r7     0.0000
   9754 C           16.8275   -16.9657    13.4833 C       0      r0     0.0003
   9755 C           16.8690   -19.5967    12.0565 C       5      r5     0.0007
   9756 C           17.0455   -20.4918    13.1812 C       7      r7     0.0004
   9757 C           17.5749   -16.3220    12.6099 C       0      r0     0.0005
   9758 C           17.9389   -18.6693    11.7101 C       5      r5     0.0013
   9759 C           18.3982   -20.0997    13.5163 C       7      r7     0.0002
   9760 C           19.0239   -19.1389    12.5843 C       5      r5     0.0013
   9761 C           20.4486   -18.9093    12.5079 C       6      r6     0.0008
   9762 C           20.4755   -16.0843    12.9494 C       5      r5    -0.0011
   9763 C           20.4156   -19.7532    14.7641 C       7      r7     0.0007
   9764 C           20.8630   -20.1605    11.6443 C       0      r0     0.0002
   9765 C           20.8835   -18.6907    13.8575 C       7      r7    -0.0002
   9766 C           21.0197   -20.2644    15.8930 C       7      r7     0.0007
   9767 C           21.2399   -16.1640    14.1791 C       7      r7     0.0014
   9768 C           21.2665   -16.4375    11.8300 C       5      r5     0.0001
   9769 C           21.6071   -17.5457    14.5354 C       7      r7    -0.0005
   9770 C           22.6253   -17.0593    11.7812 C       5      r5    -0.0012
   9771 C           22.8927   -17.8971    15.1537 C       7      r7     0.0002
   9772 C           23.6098   -17.5999    12.6453 C       5      r5    -0.0011
   9773 C           24.0248   -17.4380    14.1479 C       7      r7    -0.0011
   9774 C           24.2097   -18.6273    11.8120 C       5      r5     0.0000
   9775 C           24.2771   -15.9370    14.6140 C       7      r7     0.0017
   9776 C           25.0785   -18.5802    14.4749 C       6      r6    -0.0020
   9777 C           25.1872   -19.6330    12.2391 C       6      r6    -0.0015
   9778 C          -24.6039   -11.8250    11.5680 C       5      r5     0.0005
   9779 C          -24.2299   -11.3047    14.3461 C       0      r0     0.0154
   9780 C          -23.5749   -13.9429    12.2314 C       5      r5    -0.0008
   9781 C          -23.3761   -12.4756    12.0886 C       0      r0    -0.0006
   9782 C          -23.1291   -11.9576    14.8565 C       0      r0     0.0018
   9783 C          -23.2092   -14.3983    13.5527 C       5      r5     0.0007
   9784 C          -22.7082   -13.4576    14.6284 C       0      r0     0.0003
   9785 C          -22.8571   -15.7934    13.3788 C       7      r7    -0.0001
   9786 C          -22.0543   -11.8538    12.3395 C       0      r0    -0.0005
   9787 C          -21.7628   -14.2399    15.1516 C       0      r0    -0.0003
   9788 C          -21.0254   -12.7630    12.0885 C       0      r0    -0.0012
   9789 C          -20.8828   -15.0586    15.5492 C       0      r0    -0.0007
   9790 C          -19.9998   -13.5920    11.7636 C       5      r5     0.0012
   9791 C          -19.5094   -14.9001    12.4365 C       5      r5     0.0020
   9792 C          -18.8710   -14.3130    13.6098 C       5      r5     0.0002
   9793 C          -18.8234   -12.6411    11.8439 C       5      r5    -0.0008
   9794 C          -18.5828   -15.8019    11.7717 C       5      r5     0.0009
   9795 C          -18.5140   -15.9393    15.4603 C       7      r7     0.0002
   9796 C          -18.2292   -13.1397    13.0750 C       5      r5    -0.0006
   9797 C          -17.9321   -14.9435    14.5766 C       5      r5     0.0008
   9798 C          -16.8058   -13.2875    13.3970 C       5      r5    -0.0001
   9799 C          -16.6493   -14.4112    14.1869 C       5      r5     0.0014
   9800 C          -15.5056   -12.9628    12.7051 C       5      r5     0.0006
   9801 C          -15.1027   -14.6800    14.3344 C       5      r5     0.0003
   9802 C          -14.8338   -15.7543    11.9760 C       0      r0     0.0020
   9803 C          -14.8449   -14.8936    15.8028 C       7      r7    -0.0009
   9804 C          -14.5791   -13.2944    13.7753 C       5      r5     0.0015
   9805 C          -14.3709   -15.7948    13.3590 C       0      r0     0.0008
   9806 C          -14.2670   -12.2482    14.7041 C       6      r6    -0.0006
   9807 C          -11.3926   -14.2880    15.3332 C       5      r5    -0.0011
   9808 C          -11.0339   -14.7951    13.9850 C       6      r6    -0.0002
   9809 C          -10.4837   -13.2703    15.8847 C       5      r5     0.0009
   9810 C          -10.0507   -11.9707    15.3658 C       6      r6     0.0016
   9811 C           -9.6620   -14.5806    13.4434 C       6      r6    -0.0003
   9812 C           -9.0383   -15.9321    13.3720 C       7      r7    -0.0008
   9813 C           -8.9394   -13.5871    12.6227 C       5      r5    -0.0012
   9814 C           -8.9771   -12.0814    12.4731 C       5      r5    -0.0022
   9815 C           -7.8804   -14.0088    11.7532 C       7      r7     0.0002
   9816 C           -7.7759   -15.4091    11.3597 C       7      r7     0.0012
   9817 C           -5.5246   -13.8529    15.8333 C       7      r7    -0.0001
   9818 C           -5.2163   -13.8192    14.4137 C       7      r7     0.0007
   9819 C           -4.8413   -15.0748    13.6707 C       6      r6    -0.0005
   9820 C           -4.5136   -12.5459    14.1288 C       7      r7     0.0008
   9821 C           -4.2738   -14.8866    12.3149 C       5      r5    -0.0012
   9822 C           -3.2540   -13.8581    12.5727 C       7      r7     0.0003
   9823 C           -3.1889   -12.8205    13.5495 C       7      r7     0.0012
   9824 C           -1.9885   -14.4953    12.2334 C       7      r7     0.0014
   9825 C           -1.8724   -12.1863    13.8801 C       7      r7     0.0002
   9826 C           -0.5174   -12.6084    14.2572 C       7      r7    -0.0001
   9827 C           -0.5372   -14.3474    12.2917 C       7      r7    -0.0007
   9828 C           -0.3064   -15.8686    14.6281 C       7      r7     0.0028
   9829 C            0.2685   -13.5865    13.3063 C       7      r7    -0.0003
   9830 C            0.2782   -12.2247    15.3981 C       7      r7     0.0011
   9831 C            0.8355   -14.8951    14.2838 C       7      r7     0.0009
   9832 C            1.2486   -12.7021    12.5052 C       7      r7    -0.0026
   9833 C            1.1695   -14.5675    15.5959 C       5      r5     0.0025
   9834 C            2.3102   -15.1535    13.8755 C       7      r7     0.0003
   9835 C            2.4467   -12.0027    13.0445 C       7      r7    -0.0022
   9836 C            3.0822   -12.7648    14.0649 C       7      r7     0.0005
   9837 C            3.3450   -14.1837    13.8132 C       7      r7    -0.0004
   9838 C            3.6582   -12.1612    15.3289 C       0      r0     0.0003
   9839 C            4.8406   -14.4082    13.6331 C       5      r5     0.0001
   9840 C            5.0749   -15.8773    13.5064 C       7      r7    -0.0018
   9841 C            4.9074   -12.3128    15.6694 C       0      r0    -0.0013
   9842 C            6.0425   -13.6780    13.3389 C       5      r5     0.0010
   9843 C            6.8505   -12.3765    13.7279 C       0      r0     0.0009
   9844 C            6.9444   -14.6608    12.7343 C       7      r7    -0.0006
   9845 C            7.2585   -12.1926    15.1467 C       0      r0     0.0012
   9846 C            7.7840   -11.8177    12.9088 C       0      r0     0.0001
   9847 C            7.9921   -15.2542    15.6431 C       0      r0    -0.0019
   9848 C            8.1827   -14.5187    11.9201 C       7      r7    -0.0007
   9849 C            8.7015   -12.0320    15.4603 C       0      r0     0.0003
   9850 C            9.0076   -14.6413    14.9017 C       6      r6     0.0005
   9851 C            9.3947   -15.3651    13.6766 C       7      r7     0.0019
   9852 C            9.5465   -14.4664    12.5115 C       7      r7    -0.0001
   9853 C            9.4799   -13.1884    14.8917 C       6      r6     0.0009
   9854 C           10.3698   -13.2841    12.4996 C       6      r6    -0.0004
   9855 C           10.6160   -12.9971    13.9158 C       6      r6     0.0015
   9856 C           11.9828   -12.3740    14.0968 C       0      r0     0.0000
   9857 C           13.2975   -12.9272    13.6319 C       6      r6    -0.0003
   9858 C           14.0501   -14.0937    14.1955 C       6      r6     0.0000
   9859 C           14.1856   -12.1124    12.7468 C       6      r6     0.0001
   9860 C           14.5218   -13.6839    15.5067 C       7      r7     0.0010
   9861 C           14.8946   -14.9869    13.3319 C       6      r6     0.0002
   9862 C           14.9343   -13.0516    11.8950 C       7      r7     0.0005
   9863 C           15.7265   -14.1298    12.4879 C       7      r7     0.0009
   9864 C           15.9236   -13.3499    15.3173 C       7      r7    -0.0000
   9865 C           16.4960   -11.9992    14.9360 C       6      r6    -0.0006
   9866 C           17.2705   -13.7964    12.5511 C       7      r7     0.0001
   9867 C           17.8356   -11.4605    11.3170 C       7      r7    -0.0000
   9868 C           18.0973   -14.8922    12.6985 C       6      r6    -0.0005
   9869 C           18.0381   -12.5104    12.3015 C       7      r7    -0.0013
   9870 C           19.2862   -12.4731    13.1591 C       6      r6     0.0017
   9871 C           19.5556   -11.3465    14.0880 C       6      r6    -0.0100
   9872 C           19.6421   -14.8302    12.4464 C       5      r5    -0.0004
   9873 C           20.1160   -13.6023    13.2208 C       6      r6    -0.0026
   9874 C           20.7788   -11.4334    14.7541 C       6      r6     0.0442
   9875 C           21.2940   -13.6662    14.0434 C       6      r6     0.0103
   9876 C           21.7178   -12.4687    14.7717 C       6      r6    -0.0666
   9877 C           21.9839   -14.8958    14.3354 C       7      r7    -0.0068
   9878 C           23.0079   -12.4174    15.3509 C       6      r6     0.2620
   9879 C           23.3944   -14.8241    14.5679 C       7      r7     0.0050
   9880 C           23.8173   -13.5741    15.2525 C       5      r5    -0.0442
   9881 C          -25.1316   -15.4120    15.4365 C       5      r5    -0.0055
   9882 C          -25.0135    -8.2592    11.3998 C       7      r7     0.0003
   9883 C          -24.3196    -8.6015    13.7389 C       6      r6    -0.0022
   9884 C          -24.0509    -8.8491    12.2948 C       6      r6    -0.0031
   9885 C          -23.4312    -7.6359    14.4906 C       7      r7     0.0015
   9886 C          -22.9464    -9.6064    11.7252 C       6      r6    -0.0013
   9887 C          -22.1717    -7.0043    14.2098 C       7      r7     0.0006
   9888 C          -22.0104   -10.3291    12.5366 C       0      r0    -0.0030
   9889 C          -21.7506    -6.9446    12.8017 C       7      r7    -0.0026
   9890 C          -20.9776    -9.3940    12.9303 C       0      r0    -0.0017
   9891 C          -20.8828   -11.1890    15.9642 C       6      r6    -0.0014
   9892 C          -20.8878    -8.0499    12.2753 C       0      r0     0.0008
   9893 C          -19.9283   -10.5231    15.0414 C       5      r5    -0.0018
   9894 C          -19.8690    -9.6937    13.8742 C       5      r5    -0.0022
   9895 C          -18.6738   -11.3835    11.2657 C       0      r0     0.0010
   9896 C          -18.5798   -10.6899    15.4202 C       5      r5    -0.0019
   9897 C          -18.4957    -9.3659    13.5682 C       5      r5     0.0013
   9898 C          -17.8344    -8.6023    12.4953 C       6      r6     0.0060
   9899 C          -17.6762   -10.0832    14.4851 C       5      r5     0.0015
   9900 C          -17.6009    -7.1481    12.5166 C       6      r6    -0.0477
   9901 C          -17.2803   -10.7905    11.3244 C       6      r6     0.0033
   9902 C          -17.1632    -9.3584    11.4310 C       6      r6    -0.0095
   9903 C          -17.0823    -6.9219    13.8884 C       6      r6     0.0169
   9904 C          -16.3503   -10.2535    15.0302 C       5      r5     0.0015
   9905 C          -15.7642    -7.3418    14.2301 C       6      r6    -0.0045
   9906 C          -15.1253    -9.8531    14.2817 C       6      r6     0.0007
   9907 C          -15.0795    -8.5720    13.6228 C       6      r6    -0.0003
   9908 C          -14.0396   -10.8204    14.2465 C       6      r6    -0.0014
   9909 C          -14.0226    -8.4753    12.6067 C       6      r6    -0.0018
   9910 C          -13.8957    -7.2068    11.9090 C       6      r6    -0.0012
   9911 C          -13.5363    -6.8990    15.2941 C       6      r6    -0.0006
   9912 C          -13.0223    -9.4910    12.2516 C       6      r6    -0.0005
   9913 C          -12.9021   -10.2884    13.4765 C       6      r6    -0.0021
   9914 C          -11.8950    -9.2304    11.3414 C       6      r6    -0.0038
   9915 C          -11.5065   -10.5377    13.8586 C       6      r6    -0.0021
   9916 C          -11.1925   -11.0289    15.2420 C       0      r0     0.0010
   9917 C          -10.8843    -6.8832    15.5193 C       7      r7    -0.0025
   9918 C          -10.5650    -9.3464    11.9714 C       6      r6     0.0010
   9919 C          -10.3507   -10.0750    13.2133 C       6      r6    -0.0027
   9920 C           -9.0906   -10.9408    13.3782 C       0      r0    -0.0004
   9921 C           -8.1435   -10.2492    15.5183 C       0      r0     0.0018
   9922 C           -7.8753   -10.3932    14.0753 C       0      r0    -0.0018
   9923 C           -7.0442    -8.4619    12.5683 C       0      r0    -0.0011
   9924 C           -6.8386    -7.0659    13.0469 C       6      r6    -0.0006
   9925 C           -6.7202    -9.6940    13.2573 C       0      r0    -0.0009
   9926 C           -5.4506   -10.6627    15.6016 C       7      r7     0.0010
   9927 C           -5.4200   -10.3225    13.2223 C       0      r0     0.0000
   9928 C           -5.2974   -11.2646    14.3054 C       7      r7     0.0003
   9929 C           -4.0514   -10.0267    12.6037 C       7      r7     0.0015
   9930 C           -3.9056    -8.0511    15.7884 C       6      r6    -0.0012
   9931 C           -3.7265    -7.4976    11.6007 C       7      r7     0.0019
   9932 C           -3.2631    -6.7965    15.3859 C       5      r5    -0.0004
   9933 C           -2.8579    -9.7634    13.4208 C       7      r7     0.0005
   9934 C           -2.4024    -7.5513    12.2607 C       7      r7     0.0005
   9935 C           -1.9261   -10.7495    13.8853 C       7      r7    -0.0004
   9936 C           -2.0925    -8.5085    13.2858 C       7      r7     0.0001
   9937 C           -1.1619    -7.0934    11.6811 C       5      r5     0.0003
   9938 C           -0.7403    -9.9825    14.3626 C       7      r7    -0.0005
   9939 C           -0.9060   -10.2119    15.7832 C       7      r7     0.0018
   9940 C           -0.7595    -8.6039    13.8463 C       5      r5     0.0000
   9941 C            0.1934    -6.9728    12.2974 C       5      r5    -0.0009
   9942 C            0.4446    -7.8149    13.4566 C       6      r6    -0.0001
   9943 C            1.7622    -8.0136    14.0180 C       0      r0    -0.0000
   9944 C            1.8358    -9.9184    15.9538 C       7      r7     0.0086
   9945 C            2.1784    -9.3324    14.6502 C       6      r6    -0.0017
   9946 C            2.8460    -7.0127    13.7400 C       0      r0    -0.0017
   9947 C            3.0661   -10.6814    12.7998 C       7      r7    -0.0015
   9948 C            3.3989    -9.9055    14.0323 C       6      r6    -0.0001
   9949 C            3.7201    -7.3317    12.5959 C       0      r0    -0.0004
   9950 C            4.4862    -9.7788    15.0686 C       6      r6    -0.0004
   9951 C            5.1451    -7.0292    12.7059 C       7      r7    -0.0000
   9952 C            5.5822    -8.7819    15.1423 C       5      r5    -0.0009
   9953 C            6.2511    -7.9844    12.8840 C       7      r7     0.0002
   9954 C            6.4736    -7.9285    14.3752 C       7      r7    -0.0002
   9955 C            6.9634    -6.9184    15.3035 C       7      r7    -0.0007
   9956 C            7.1427    -8.6362    11.8616 C       0      r0     0.0012
   9957 C            8.7660   -11.2298    12.1987 C       0      r0    -0.0006
   9958 C            9.8554   -10.2755    12.6843 C       0      r0     0.0008
   9959 C            9.9134    -9.7339    15.1371 C       6      r6     0.0018
   9960 C           10.1172    -8.2691    15.3860 C       6      r6     0.0002
   9961 C           10.2074    -9.1334    11.8598 C       7      r7     0.0008
   9962 C           10.5777   -10.2689    13.9619 C       0      r0     0.0003
   9963 C           10.7517    -7.2755    14.6176 C       7      r7    -0.0007
   9964 C           11.3863    -8.3135    12.3144 C       7      r7     0.0005
   9965 C           11.7042    -7.6851    13.5804 C       7      r7    -0.0006
   9966 C           11.9489   -10.9083    14.4115 C       0      r0    -0.0001
   9967 C           12.9269   -10.1830    15.0189 C       0      r0     0.0007
   9968 C           13.1387    -7.4204    13.4633 C       7      r7    -0.0007
   9969 C           13.5908    -7.3283    12.0686 C       5      r5    -0.0013
   9970 C           13.8202    -7.0602    14.7229 C       7      r7    -0.0011
   9971 C           13.8650    -7.9776    15.8689 C       5      r5    -0.0005
   9972 C           13.8918    -9.4361    15.6617 C       5      r5     0.0012
   9973 C           14.8866    -9.8299    12.2641 C       6      r6     0.0006
   9974 C           15.0112   -10.9604    13.1164 C       6      r6     0.0007
   9975 C           15.0566    -7.4843    11.8897 C       7      r7    -0.0002
   9976 C           15.5857    -8.6120    12.6846 C       7      r7     0.0011
   9977 C           16.3278   -11.0604    13.8734 C       6      r6    -0.0001
   9978 C           16.8917    -8.6874    13.4783 C       7      r7    -0.0001
   9979 C           17.3280    -9.9826    13.8284 C       6      r6    -0.0015
   9980 C           17.6778    -7.4764    13.7708 C       7      r7    -0.0008
   9981 C           18.7782    -9.5679    15.7992 C       7      r7     0.0006
   9982 C           18.8497   -10.0223    14.2678 C       6      r6     0.0018
   9983 C           19.1053    -7.4986    14.0415 C       6      r6     0.0004
   9984 C           19.7235    -8.8003    13.8097 C       6      r6     0.0010
   9985 C           21.0664   -10.5500    15.7894 C       5      r5    -0.0591
   9986 C           21.0350    -8.6350    13.1529 C       7      r7     0.0006
   9987 C           21.1733    -7.3103    12.4166 C       7      r7    -0.0005
   9988 C           22.2720   -10.5927    12.0075 C       7      r7    -0.0002
   9989 C           22.2861    -9.4565    13.0336 C       7      r7     0.0094
   9990 C           23.5467   -11.2465    11.5633 C       7      r7     0.0028
   9991 C           23.7015    -8.8804    13.0825 C       7      r7     0.0025
   9992 C           24.1420    -8.2453    11.8944 C       7      r7    -0.0024
   9993 C           24.7606   -11.2708    12.3429 C       7      r7    -0.0067
   9994 C           24.9073    -9.3474    13.8594 C       7      r7     0.0192
   9995 C           25.1048   -10.8249    13.7665 C       7      r7     0.0300
   9996 C          -21.7590    -5.6586    12.0304 C       7      r7     0.0042
   9997 C          -21.2803    -6.2439    15.3603 C       7      r7     0.0000
   9998 C          -20.7358    -4.6698    12.3223 C       7      r7     0.0245
   9999 C          -20.5169    -4.8436    15.0035 C       7      r7     0.0031
  10000 C          -20.2109    -4.4563    13.6811 C       7      r7     0.0074
  10001 C          -19.7887    -2.5627    15.9131 C       6      r6     0.0008
  10002 C          -19.4191    -3.1758    13.5591 C       6      r6     0.0026
  10003 C          -18.4097    -3.0403    12.4892 C       6      r6     0.0139
  10004 C          -17.5806    -5.8930    14.8661 C       6      r6     0.0017
  10005 C          -17.1301    -2.6718    13.1107 C       5      r5     0.0185
  10006 C          -16.6624    -4.7624    14.7845 C       6      r6     0.0071
  10007 C          -16.5970    -3.3617    14.2494 C       5      r5     0.0027
  10008 C          -15.3830    -5.1415    15.4058 C       6      r6    -0.0012
  10009 C          -15.3021    -2.7184    14.5148 C       5      r5    -0.0017
  10010 C          -14.9404    -6.5137    15.1445 C       6      r6     0.0030
  10011 C          -14.2977    -2.9397    15.6444 C       6      r6    -0.0004
  10012 C          -13.5779    -4.7725    12.1490 C       5      r5     0.0082
  10013 C          -13.3299    -2.5462    11.8135 C       5      r5     0.0155
  10014 C          -13.4427    -6.1551    12.7301 C       6      r6     0.0027
  10015 C          -12.9777    -3.6288    12.7477 C       5      r5     0.0039
  10016 C          -12.8274    -6.4747    14.0590 C       6      r6    -0.0016
  10017 C          -11.6657    -3.7308    13.3495 C       5      r5     0.0021
  10018 C          -11.4348    -6.3836    14.2660 C       5      r5    -0.0014
  10019 C          -10.8704    -2.6321    13.8906 C       5      r5    -0.0001
  10020 C          -10.5983    -4.5682    12.7388 C       5      r5     0.0102
  10021 C          -10.3951    -5.8814    13.3356 C       5      r5    -0.0015
  10022 C           -9.6180    -2.5418    13.1925 C       5      r5    -0.0007
  10023 C           -9.3980    -6.8216    15.3857 C       7      r7    -0.0019
  10024 C           -9.4743    -3.7507    12.2929 C       5      r5     0.0082
  10025 C           -9.2394    -6.5575    13.9085 C       5      r5    -0.0002
  10026 C           -8.4523    -4.4259    11.5370 C       0      r0     0.0008
  10027 C           -7.7991    -6.2924    13.8578 C       5      r5    -0.0010
  10028 C           -7.3412    -6.0630    15.2482 C       5      r5    -0.0010
  10029 C           -6.0657    -5.3337    15.3888 C       6      r6     0.0001
  10030 C           -5.5714    -6.3280    13.0979 C       7      r7    -0.0011
  10031 C           -5.1585    -5.6059    14.3091 C       7      r7    -0.0011
  10032 C           -4.5403    -6.3003    12.0493 C       7      r7    -0.0014
  10033 C           -3.7261    -5.0496    11.7662 C       7      r7    -0.0011
  10034 C           -3.8061    -5.7429    14.6671 C       7      r7     0.0014
  10035 C           -2.8135    -4.4671    12.7514 C       7      r7    -0.0000
  10036 C           -2.7769    -5.0416    14.0926 C       7      r7    -0.0012
  10037 C           -1.9079    -6.3829    15.7776 C       5      r5    -0.0013
  10038 C           -1.6473    -5.3142    14.8903 C       7      r7     0.0006
  10039 C           -1.7520    -3.6785    12.2589 C       7      r7     0.0003
  10040 C           -0.8852    -4.2653    15.2691 C       7      r7     0.0028
  10041 C           -0.5714    -3.3960    12.9704 C       7      r7    -0.0014
  10042 C           -0.1675    -3.7623    14.2339 C       7      r7    -0.0008
  10043 C            0.5939    -2.9310    12.3254 C       5      r5    -0.0008
  10044 C            1.2011    -3.5122    14.4281 C       7      r7    -0.0005
  10045 C            1.7490    -2.9424    13.1716 C       7      r7    -0.0014
  10046 C            1.9669    -4.0052    15.5958 C       7      r7     0.0024
  10047 C            2.9007    -2.2683    12.7720 C       7      r7     0.0001
  10048 C            3.1237    -4.6385    14.9389 C       7      r7     0.0002
  10049 C            3.2566    -6.1308    14.8636 C       0      r0    -0.0007
  10050 C            4.0757    -3.6266    14.4262 C       7      r7    -0.0001
  10051 C            5.4902    -3.7186    14.3701 C       7      r7    -0.0009
  10052 C            5.5169    -3.5672    11.4476 C       7      r7     0.0016
  10053 C            5.6132    -5.6543    12.9450 C       7      r7    -0.0001
  10054 C            5.9863    -5.0587    14.2895 C       7      r7    -0.0008
  10055 C            6.1875    -4.8445    11.8415 C       7      r7     0.0004
  10056 C            6.3498    -2.4958    14.6755 C       7      r7    -0.0014
  10057 C            7.1632    -5.3670    15.2322 C       7      r7    -0.0022
  10058 C            7.7780    -2.4458    14.3482 C       7      r7     0.0002
  10059 C            8.1328    -2.5334    12.8864 C       6      r6    -0.0004
  10060 C            8.5439    -3.0863    15.4691 C       7      r7    -0.0015
  10061 C            8.6061    -4.6985    14.9597 C       7      r7    -0.0007
  10062 C            8.9570    -3.6756    12.5351 C       6      r6    -0.0010
  10063 C            9.2205    -4.7231    13.5892 C       7      r7    -0.0006
  10064 C            9.7073    -5.2471    15.9623 C       7      r7    -0.0008
  10065 C           10.1953    -2.7584    15.8390 C       7      r7    -0.0002
  10066 C           10.6274    -4.9248    13.6788 C       7      r7     0.0004
  10067 C           10.8623    -5.7967    14.9111 C       7      r7    -0.0000
  10068 C           11.0465    -2.6061    14.5457 C       7      r7     0.0117
  10069 C           11.2240    -3.5901    13.5479 C       7      r7    -0.0029
  10070 C           12.1561    -3.3575    12.3165 C       5      r5    -0.0010
  10071 C           12.2243    -5.3500    15.5328 C       7      r7    -0.0006
  10072 C           13.5625    -5.6572    15.0005 C       7      r7     0.0006
  10073 C           13.5073    -3.8184    12.5461 C       5      r5    -0.0006
  10074 C           14.3727    -3.5981    13.7504 C       7      r7    -0.0007
  10075 C           14.6591    -4.7354    14.6481 C       7      r7     0.0008
  10076 C           15.8082    -4.8370    15.6300 C       7      r7    -0.0005
  10077 C           17.1632    -4.6999    15.1636 C       6      r6    -0.0009
  10078 C           17.1668    -6.2290    11.7378 C       7      r7     0.0008
  10079 C           17.1855    -6.2125    13.2131 C       7      r7    -0.0007
  10080 C           17.5945    -4.9004    13.7995 C       6      r6    -0.0000
  10081 C           18.1453    -3.7942    13.0881 C       6      r6    -0.0002
  10082 C           18.2332    -4.0095    11.5538 C       7      r7    -0.0000
  10083 C           18.6633    -2.6878    15.2707 C       7      r7    -0.0004
  10084 C           18.6462    -2.6365    13.7812 C       7      r7    -0.0013
  10085 C           20.0153    -6.3514    14.3311 C       6      r6     0.0008
  10086 C           20.4219    -5.7294    15.5798 C       6      r6     0.0003
  10087 C           21.1096    -6.1596    13.3247 C       7      r7    -0.0025
  10088 C           21.7022    -5.0143    15.6310 C       7      r7    -0.0019
  10089 C           22.0936    -5.1031    13.2889 C       7      r7    -0.0022
  10090 C           22.1273    -4.1942    14.4363 C       7      r7    -0.0019
  10091 C           22.8488    -2.9129    14.3605 C       7      r7    -0.0016
  10092 C           23.2682    -4.9304    12.2975 C       7      r7    -0.0031
  10093 C           23.2243    -2.1885    15.5525 C       7      r7     0.0028
  10094 C           23.4278    -2.5422    13.0641 C       7      r7     0.0084
  10095 C           24.0472    -3.6533    12.2720 C       7      r7     0.0007
  10096 C           23.9260    -5.8630    11.4505 C       7      r7    -0.0027
  10097 O          -24.9782     1.0026    11.4139 O       6      r6    -0.4916
  10098 C          -23.9619    -0.7987    14.1086 C       0      r0     0.0665
  10099 C          -24.0368     1.3796    12.5203 C       5      r5     0.2617
  10100 C          -23.8543    -1.6864    14.8067 C       0      r0     0.0046
  10101 C          -23.8364     0.6383    13.7150 C       5      r5    -0.0404
  10102 C          -22.8555     1.4206    14.5342 C       5      r5    -0.0005
  10103 O          -22.5996    -2.0661    11.4906 O       5      r5    -0.4721
  10104 C          -22.2644     1.1027    15.8740 C       6      r6     0.0014
  10105 C          -21.4560    -1.0981    11.7961 C       7      r7     0.2276
  10106 C          -20.6288    -0.9783    12.8770 C       7      r7    -0.0454
  10107 C          -19.7293    -0.8050    13.8548 C       7      r7     0.0146
  10108 C          -19.5248    -2.1141    14.5310 C       6      r6    -0.0012
  10109 C          -19.3459     1.0403    12.2142 C       7      r7    -0.0044
  10110 C          -18.7119     0.4247    13.4993 C       7      r7    -0.0058
  10111 C          -18.3994     1.8027    14.2185 C       5      r5    -0.0015
  10112 C          -17.2486    -0.0544    13.6421 C       5      r5    -0.0038
  10113 C          -17.0797     1.9816    14.7270 C       7      r7     0.0002
  10114 C          -16.6556    -1.2634    13.1419 C       5      r5    -0.0041
  10115 C          -16.3263     0.7762    14.3642 C       7      r7    -0.0018
  10116 C          -15.3071    -1.7008    13.5871 C       5      r5     0.0020
  10117 C          -14.8590     0.4612    14.5385 C       7      r7    -0.0014
  10118 C          -14.3441    -0.5878    13.6952 C       6      r6    -0.0004
  10119 C          -13.7587     1.0212    15.3898 C       7      r7    -0.0013
  10120 C          -13.3479    -0.2004    12.6826 C       7      r7     0.0010
  10121 C          -12.9174    -1.1663    11.7730 C       7      r7    -0.0026
  10122 C          -12.6918     1.1497    12.6315 C       7      r7    -0.0012
  10123 C          -12.4467     0.2880    15.3656 C       7      r7    -0.0003
  10124 C          -12.2462    -1.1315    15.6365 C       0      r0     0.0005
  10125 C          -11.1810     1.1251    15.1465 C       7      r7    -0.0010
  10126 C          -11.2164     0.9508    12.5440 C       7      r7    -0.0003
  10127 C          -11.0344    -1.7724    15.0512 C       5      r5     0.0000
  10128 C          -10.6051     1.2763    13.8475 C       6      r6    -0.0013
  10129 C          -10.4691     0.3015    11.4765 C       7      r7    -0.0067
  10130 C           -9.7142    -1.1260    15.0053 C       5      r5     0.0017
  10131 C           -9.2242     1.9231    13.6114 C       6      r6    -0.0015
  10132 C           -9.0550     0.7357    11.5524 C       6      r6     0.0037
  10133 C           -8.9872    -0.2632    15.8365 C       5      r5    -0.0002
  10134 C           -8.8785    -1.5633    13.9007 C       5      r5    -0.0009
  10135 C           -8.6970     1.9361    12.2464 C       6      r6    -0.0030
  10136 C           -7.7102    -0.1782    15.2731 C       5      r5    -0.0005
  10137 C           -7.5992    -0.9133    14.0113 C       5      r5     0.0002
  10138 C           -6.3011    -0.9834    13.4634 C       6      r6    -0.0007
  10139 C           -6.0239    -0.9825    12.0844 C       6      r6     0.0008
  10140 C           -5.4121    -0.3347    15.7123 C       7      r7     0.0006
  10141 C           -5.2096    -0.8575    14.4089 C       6      r6     0.0014
  10142 C           -4.7054    -1.2181    11.6305 C       6      r6     0.0041
  10143 C           -3.8866    -1.1409    13.9739 C       7      r7     0.0009
  10144 C           -3.6555    -1.0624    12.6083 C       7      r7     0.0014
  10145 C           -2.9081    -1.3751    15.0142 C       7      r7    -0.0005
  10146 C           -2.4398    -0.6026    12.1598 C       7      r7    -0.0003
  10147 C           -1.4841    -1.1658    15.0738 C       7      r7    -0.0024
  10148 C           -1.4558     0.0280    12.9695 C       7      r7     0.0003
  10149 C           -0.8122    -0.3040    14.2122 C       7      r7    -0.0005
  10150 C           -0.7724    -1.9104    16.0697 C       7      r7    -0.0019
  10151 C           -0.5921     1.0519    12.4441 C       5      r5    -0.0008
  10152 C            0.3380     0.5622    14.4242 C       7      r7    -0.0035
  10153 C            0.3362     1.4474    13.3698 C       7      r7     0.0079
  10154 C            1.5188     0.4008    15.2415 C       7      r7    -0.0035
  10155 C            2.7295     1.1465    14.8945 C       7      r7     0.0125
  10156 C            3.7032    -2.1850    13.9742 C       7      r7    -0.0007
  10157 C            3.8324     0.3405    14.3658 C       6      r6    -0.0007
  10158 C            4.2129    -1.0370    14.6686 C       6      r6    -0.0016
  10159 C            4.8899     0.9679    13.4951 C       7      r7     0.0016
  10160 C            5.2246     0.6360    12.1526 C       7      r7     0.0003
  10161 C            5.5765    -1.3974    15.2213 C       7      r7    -0.0027
  10162 C            5.9622    -2.2009    11.5637 C       5      r5     0.0003
  10163 C            6.5206     0.9368    11.6614 C       7      r7    -0.0015
  10164 C            7.3859    -1.8411    11.8428 C       6      r6    -0.0008
  10165 C            7.5334     1.5404    13.8717 C       7      r7    -0.0029
  10166 C            7.5920     1.5314    12.4158 C       7      r7    -0.0015
  10167 C            8.7569     1.2968    14.7416 C       6      r6     0.0001
  10168 C            9.0683     2.2418    15.7859 C       6      r6     0.0019
  10169 C            9.3996    -0.0018    14.8261 C       7      r7     0.0079
  10170 C           10.2052     1.9299    12.4268 C       5      r5     0.0022
  10171 C           10.1489    -0.4294    13.6453 C       7      r7    -0.0020
  10172 C           10.6784     0.5785    12.7140 C       5      r5     0.0008
  10173 C           11.3317    -1.2518    13.9974 C       7      r7     0.0248
  10174 C           12.1180     0.7267    12.9842 C       7      r7     0.0052
  10175 C           12.3998     2.1400    13.1635 C       7      r7     0.0043
  10176 C           12.5264    -0.5799    13.4858 C       7      r7     0.0175
  10177 C           13.9027    -0.9389    13.8098 C       7      r7     0.0329
  10178 C           14.5932    -2.2357    14.2500 C       7      r7     0.0069
  10179 C           14.7107     1.6209    13.5086 C       7      r7     0.0012
  10180 C           14.8391     0.1297    13.7038 C       7      r7     0.0046
  10181 C           15.4332    -2.1480    15.4236 C       7      r7     0.0188
  10182 C           15.9825     2.2531    13.2453 C       7      r7    -0.0038
  10183 C           16.2416    -0.0739    14.1487 C       5      r5     0.0013
  10184 C           16.3969    -1.0222    15.3094 C       6      r6     0.0025
  10185 C           16.8835     1.1503    13.4771 C       5      r5    -0.0016
  10186 C           18.2065     1.5072    13.0360 C       7      r7    -0.0058
  10187 C           19.4109     0.6947    12.5603 C       7      r7    -0.0021
  10188 C           19.5238    -1.6253    13.2237 C       7      r7    -0.0039
  10189 C           19.5141    -1.5906    11.7444 C       5      r5    -0.0032
  10190 C           19.6697    -0.2725    13.6755 C       7      r7    -0.0028
  10191 C           19.8079     0.2489    15.0330 C       7      r7    -0.0028
  10192 C           20.1228     1.6454    15.4097 C       7      r7    -0.0021
  10193 C           20.8726     1.6341    12.3015 C       5      r5     0.0022
  10194 C           21.6213     0.5317    11.6661 C       5      r5     0.0068
  10195 C           21.8090     1.7935    13.4596 C       5      r5    -0.0030
  10196 C           22.2701     0.4816    13.8458 C       5      r5     0.0058
  10197 C           22.3002    -0.2599    12.5887 C       5      r5     0.0095
  10198 C           23.0329     0.3320    14.9986 C       6      r6     0.0032
  10199 C           23.0950    -1.3933    12.1878 C       7      r7     0.0236
  10200 C           23.3908    -0.8025    15.7478 C       5      r5    -0.0002
  10201 C           23.5623     1.6108    15.3741 C       5      r5    -0.0010
  10202 C          -25.1090     4.6293    14.3217 C       7      r7    -0.0016
  10203 C          -25.0410     6.4605    12.6361 C       7      r7    -0.0073
  10204 C          -23.6894     4.9420    14.7830 C       7      r7    -0.0024
  10205 C          -23.5318     6.1317    15.6072 C       7      r7    -0.0013
  10206 C          -23.0884     2.4390    12.5377 C       5      r5    -0.0646
  10207 C          -22.7637     3.8436    14.8416 C       7      r7    -0.0044
  10208 C          -22.6221     2.7573    13.9152 C       5      r5     0.0082
  10209 C          -20.1219     3.4383    11.5435 C       6      r6    -0.0004
  10210 C          -19.8046     2.3470    12.4905 C       5      r5    -0.0004
  10211 C          -19.5036     5.3509    13.0664 C       6      r6     0.0011
  10212 C          -19.4436     4.7224    11.7605 C       6      r6    -0.0015
  10213 C          -19.3540     4.3353    14.0963 C       6      r6     0.0012
  10214 C          -19.2709     2.9036    13.7721 C       5      r5    -0.0017
  10215 C          -19.2639     4.5687    15.5561 C       5      r5     0.0008
  10216 C          -17.2266     6.3429    15.4648 C       7      r7    -0.0004
  10217 C          -17.0871     6.5989    14.0198 C       7      r7    -0.0001
  10218 C          -16.1864     6.5177    11.8332 C       5      r5    -0.0018
  10219 C          -16.1010     3.0540    15.0687 C       7      r7     0.0018
  10220 C          -15.8233     3.5269    12.7900 C       7      r7    -0.0003
  10221 C          -15.8241     6.5154    13.2325 C       6      r6    -0.0017
  10222 C          -15.2194     3.5386    13.9391 C       7      r7     0.0004
  10223 C          -13.9793     6.5960    15.0059 C       7      r7    -0.0019
  10224 C          -13.7059     3.4775    13.5112 C       7      r7    -0.0008
  10225 C          -13.2919     2.4583    12.5138 C       7      r7    -0.0017
  10226 C          -13.0076     5.4919    14.8069 C       7      r7    -0.0040
  10227 C          -12.9083     4.6895    13.5499 C       6      r6     0.0007
  10228 C          -12.0438     5.4476    12.5799 C       6      r6    -0.0018
  10229 C          -11.6475     5.7226    15.3013 C       7      r7     0.0149
  10230 C          -11.2457     6.5959    13.0385 C       6      r6     0.0034
  10231 C           -9.4830     2.7172    15.9995 C       5      r5    -0.0023
  10232 C           -8.6693     2.5973    14.7881 C       5      r5    -0.0016
  10233 C           -8.2633     4.6791    15.8169 C       5      r5     0.0010
  10234 C           -8.0515     6.3527    12.9879 C       6      r6     0.0013
  10235 C           -7.8266     3.7919    14.7337 C       5      r5    -0.0001
  10236 C           -7.8164     4.9969    12.5565 C       6      r6     0.0003
  10237 C           -7.0910     4.1376    13.4899 C       0      r0    -0.0024
  10238 C           -6.8126     6.7120    15.4466 C       7      r7     0.0051
  10239 C           -6.1437     3.1246    13.0612 C       5      r5     0.0062
  10240 C           -5.5493     2.9510    11.6996 C       5      r5    -0.0440
  10241 C           -5.1201     2.8280    14.1226 C       5      r5     0.0023
  10242 C           -5.0513     3.2325    15.4882 C       5      r5    -0.0040
  10243 C           -4.0950     3.1529    11.9344 C       5      r5     0.0372
  10244 C           -3.9264     4.0643    15.8890 C       5      r5    -0.0026
  10245 C           -3.9171     3.2349    13.3611 C       5      r5    -0.0086
  10246 C           -2.8536     4.5835    15.1367 C       6      r6    -0.0006
  10247 C           -2.8667     4.0925    13.8440 C       6      r6     0.0039
  10248 C           -2.4734     5.0553    11.6739 C       6      r6    -0.0081
  10249 C           -2.0443     4.9421    13.0702 C       6      r6    -0.0033
  10250 C           -1.8651     5.4990    15.6365 C       6      r6    -0.0025
  10251 C           -0.9373     5.6730    13.5262 C       6      r6     0.0024
  10252 C           -0.8609     6.1457    14.8638 C       6      r6     0.0203
  10253 C            0.0392     5.7152    12.5205 C       5      r5     0.0688
  10254 C            0.2435     4.6372    11.6721 C       5      r5     0.0082
  10255 C            0.5231     3.2777    11.9537 C       6      r6     0.0345
  10256 C            0.5202     6.7824    11.8447 C       5      r5    -0.0117
  10257 C            0.8817     2.7379    13.2369 C       7      r7    -0.0473
  10258 C            1.7699     3.4586    14.0975 C       7      r7     0.2582
  10259 O            1.9512     4.9228    13.8318 O       6      r6    -0.5285
  10260 C            2.7975     2.6291    14.6186 C       7      r7    -0.0594
  10261 C            3.3847     5.3901    13.9025 C       5      r5     0.2588
  10262 C            3.9491     6.7040    13.5997 C       5      r5    -0.0473
  10263 C            4.1753     3.0631    14.3897 C       7      r7     0.0392
  10264 C            4.4679     4.5614    14.2340 C       7      r7    -0.0588
  10265 C            5.3323     2.2555    14.1942 C       7      r7    -0.0076
  10266 C            5.3931     6.6785    13.5969 C       5      r5     0.0042
  10267 C            5.7364     5.3041    14.0138 C       7      r7     0.0056
  10268 C            6.7097     2.6103    14.4041 C       7      r7     0.0013
  10269 C            7.0052     5.1098    14.6101 C       7      r7    -0.0008
  10270 C            7.3969     3.7650    15.0356 C       7      r7    -0.0013
  10271 C            7.7955     6.2929    14.9953 C       6      r6    -0.0013
  10272 C            8.5204     3.6094    15.8702 C       6      r6    -0.0031
  10273 C            8.8230     2.2641    11.9925 C       6      r6    -0.0010
  10274 C            9.9439     4.4644    11.3781 C       5      r5     0.0036
  10275 C           11.1004     4.1778    12.0204 C       6      r6    -0.0192
  10276 C           11.2571     2.8546    12.5591 C       5      r5     0.0030
  10277 H           11.9312     4.9042    12.1171 H       0      r0     0.0221
  10278 C           13.6233     2.5246    13.8324 C       7      r7     0.0057
  10279 C           13.9823     6.1806    14.5821 C       7      r7    -0.0011
  10280 C           13.9166     3.7641    14.6210 C       7      r7     0.0017
  10281 C           14.4565     4.9314    13.9644 C       7      r7    -0.0044
  10282 C           15.4785     4.8466    12.8808 C       7      r7    -0.0040
  10283 C           15.8388     6.1714    12.3122 C       6      r6    -0.0007
  10284 C           16.3480     3.7230    13.0853 C       7      r7    -0.0030
  10285 C           16.8375     6.4527    11.4232 C       0      r0     0.0006
  10286 C           17.0374     5.7391    15.5728 C       6      r6    -0.0010
  10287 C           17.6177     3.8609    13.8190 C       5      r5    -0.0003
  10288 C           17.8732     4.6103    15.0116 C       5      r5    -0.0004
  10289 C           18.6016     2.7238    13.7081 C       7      r7    -0.0006
  10290 C           19.0962     4.1224    15.5459 C       7      r7    -0.0004
  10291 C           19.4847     2.8150    14.8728 C       7      r7    -0.0013
  10292 C           19.9122     6.9948    15.3070 C       7      r7     0.0003
  10293 C           20.5574     2.9609    11.5547 C       6      r6    -0.0393
  10294 C           21.5189     3.9777    11.6597 C       5      r5     0.2364
  10295 C           22.6050     3.9013    12.6009 C       7      r7    -0.0314
  10296 C           22.6201     2.9474    13.6094 C       7      r7     0.0122
  10297 C           23.5700     4.8944    12.4010 C       7      r7    -0.0430
  10298 C           23.6426     2.7619    14.5409 C       7      r7     0.0067
  10299 C           24.7658     3.5260    14.9753 C       7      r7    -0.0003
  10300 C           24.7673     5.2241    13.1615 C       7      r7     0.0122
  10301 C          -24.5498     7.1160    15.1085 C       7      r7    -0.0013
  10302 C          -24.5106     7.4188    13.6398 C       7      r7     0.0005
  10303 C          -24.2652    11.1624    13.5620 C       7      r7    -0.0010
  10304 C          -24.1882    10.5552    14.9872 C       7      r7     0.0009
  10305 C          -24.1158     8.6772    12.9396 C       7      r7     0.0001
  10306 C          -23.1066    11.2523    12.7331 C       7      r7    -0.0013
  10307 C          -23.0134    10.3584    15.7552 C       7      r7     0.0014
  10308 C          -22.7722     8.4957    12.1611 C       7      r7    -0.0010
  10309 C          -21.8601    10.5048    13.1529 C       7      r7     0.0026
  10310 C          -21.6461    10.7621    15.5339 C       7      r7     0.0005
  10311 C          -21.5795     9.2317    12.5032 C       7      r7     0.0016
  10312 C          -20.9508    10.8773    14.2699 C       7      r7     0.0011
  10313 C          -20.0945     9.1856    12.0382 C       7      r7     0.0011
  10314 C          -19.9769     7.5931    11.8373 C       7      r7    -0.0001
  10315 C          -19.5487    10.5000    14.2709 C       6      r6     0.0002
  10316 C          -19.3547     6.8368    12.8982 C       6      r6     0.0022
  10317 C          -18.9624     9.9220    13.0487 C       5      r5    -0.0011
  10318 C          -18.7468    10.8125    15.4894 C       6      r6     0.0004
  10319 C          -18.1385     7.5009    13.4541 C       7      r7    -0.0005
  10320 C          -18.2016    10.9717    12.1379 C       5      r5    -0.0006
  10321 C          -18.0118     8.9169    13.7719 C       7      r7    -0.0012
  10322 C          -17.2968    10.7212    15.3048 C       6      r6    -0.0010
  10323 C          -16.9703     9.4304    14.6758 C       7      r7    -0.0017
  10324 C          -16.2633     8.6118    15.6793 C       7      r7    -0.0019
  10325 C          -14.5621     7.0805    13.6919 C       6      r6    -0.0012
  10326 C          -14.0249    10.9713    12.7962 C       7      r7     0.0123
  10327 C          -13.6379    10.4208    11.4991 C       7      r7    -0.0628
  10328 C          -13.6325     7.5519    12.6546 C       6      r6    -0.0021
  10329 C          -12.6286     8.5971    12.9038 C       7      r7     0.0003
  10330 C          -12.5445     9.4599    11.7465 C       7      r7     0.0377
  10331 C          -12.2245    10.5514    14.5221 C       7      r7     0.0363
  10332 C          -12.0689     9.1058    14.1922 C       7      r7    -0.0567
  10333 C          -11.4890    11.0368    15.6957 C       7      r7    -0.0604
  10334 C          -11.2942     8.2473    15.0284 C       6      r6     0.2408
  10335 C          -11.1478     6.8853    14.5057 C       6      r6    -0.0327
  10336 C          -10.3407     7.4437    12.2279 C       5      r5    -0.0032
  10337 C           -8.9198     7.0509    12.0164 C       5      r5     0.0005
  10338 C           -7.1411     7.0220    14.0255 C       5      r5     0.0074
  10339 C           -6.8777    10.7832    12.5561 C       6      r6     0.0015
  10340 C           -6.5124     9.5204    11.8688 C       6      r6     0.0002
  10341 C           -6.2750    11.0859    13.7863 C       0      r0     0.0033
  10342 C           -5.9358     7.7282    13.7099 C       5      r5    -0.0015
  10343 C           -5.6358     8.4614    12.4540 C       6      r6    -0.0015
  10344 C           -4.9980     7.9753    14.8306 C       5      r5    -0.0005
  10345 C           -4.6984     7.7446    11.5930 C       6      r6    -0.0020
  10346 C           -4.5375    10.4662    15.3771 C       6      r6     0.0007
  10347 C           -4.2216     9.1715    14.6934 C       6      r6    -0.0005
  10348 C           -3.2795     7.4798    11.7865 C       6      r6    -0.0020
  10349 C           -3.1221     9.2388    13.7632 C       5      r5    -0.0025
  10350 C           -2.5610     8.4571    12.5587 C       5      r5    -0.0025
  10351 C           -2.0813    10.9505    15.4912 C       6      r6    -0.0005
  10352 C           -2.1433    10.1407    14.2681 C       5      r5    -0.0005
  10353 C           -1.1557     8.8000    12.4307 C       5      r5    -0.0020
  10354 C           -0.9067     9.6191    13.6285 C       5      r5     0.0008
  10355 C           -0.2259     9.0412    11.3098 C       7      r7    -0.0010
  10356 C            0.0302     7.1634    15.4453 C       6      r6     0.0207
  10357 C            0.1624     9.5107    14.6023 C       6      r6    -0.0043
  10358 C            0.5929    10.2227    11.5272 C       7      r7     0.0001
  10359 C            0.7577     8.1378    14.6374 C       6      r6     0.0066
  10360 C            1.7406     7.3750    12.2940 C       0      r0     0.0331
  10361 C            1.8593     7.9395    13.6386 C       0      r0     0.0139
  10362 C            2.0623    10.3136    11.5460 C       6      r6    -0.0016
  10363 C            3.2747     7.9592    14.0294 C       0      r0     0.0161
  10364 C            3.9416     8.5457    15.2169 C       5      r5    -0.0027
  10365 C            4.7025     9.8119    15.2686 C       5      r5    -0.0009
  10366 C            5.1114    10.8384    14.3625 C       5      r5    -0.0013
  10367 C            6.0275    10.9658    13.1751 C       5      r5    -0.0010
  10368 C            6.3876     7.7271    13.4503 C       6      r6    -0.0002
  10369 C            6.5772     9.9929    12.1598 C       5      r5    -0.0011
  10370 C            6.7100     8.5043    12.2681 C       6      r6    -0.0003
  10371 C            7.4763     7.6477    14.4424 C       6      r6    -0.0006
  10372 C            7.5475     8.7194    15.3849 C       0      r0     0.0001
  10373 C           11.7720    11.3128    13.8866 C       7      r7     0.0019
  10374 C           12.0612    10.5212    15.0838 C       6      r6    -0.0001
  10375 C           12.5661    10.8797    12.7984 C       7      r7     0.0011
  10376 C           12.6664     9.1670    15.1712 C       7      r7     0.0029
  10377 C           13.0970     9.4692    12.7262 C       6      r6    -0.0000
  10378 C           13.1380     8.6000    13.9042 C       7      r7     0.0016
  10379 C           13.5529     9.0302    11.4481 C       6      r6    -0.0017
  10380 C           14.0387     7.3597    13.7113 C       7      r7    -0.0014
  10381 C           14.5654     7.0283    12.3859 C       6      r6    -0.0040
  10382 C           16.8892    11.1687    13.3280 C       7      r7     0.0010
  10383 C           16.9733     8.1274    15.6864 C       7      r7     0.0008
  10384 C           17.0007     9.4733    15.2474 C       7      r7     0.0015
  10385 C           17.4272     6.9575    15.0786 C       7      r7    -0.0005
  10386 C           17.1201     9.8430    13.8419 C       7      r7    -0.0006
  10387 C           17.7366    11.0949    12.1310 C       7      r7    -0.0042
  10388 C           18.0103     9.6821    11.7406 C       7      r7    -0.0013
  10389 C           17.8457     8.8837    12.9348 C       7      r7    -0.0005
  10390 C           18.7070     7.2328    14.5878 C       7      r7     0.0018
  10391 C           18.9165     8.1168    13.4934 C       7      r7     0.0044
  10392 C           20.3475     8.3988    13.6600 C       5      r5     0.0036
  10393 C           20.9999     7.5571    14.5847 C       7      r7     0.0031
  10394 C           21.4246     9.0235    12.9669 C       5      r5     0.0018
  10395 C           21.5005     9.5492    11.5894 C       5      r5     0.0032
  10396 C           22.4591     7.7049    14.6155 C       7      r7     0.0019
  10397 C           22.7023     8.6646    13.6018 C       5      r5     0.0009
  10398 C           23.2489     7.0629    15.6353 C       7      r7    -0.0010
  10399 C           23.7192     8.9881    12.5630 C       5      r5    -0.0001
  10400 C           23.8349    10.7016    15.8396 C       7      r7    -0.0002
  10401 C           24.7038     7.0158    15.8722 C       7      r7    -0.0008
  10402 C           25.1694     9.1698    12.2669 C       7      r7    -0.0017
  10403 C           25.1411    10.1414    15.8523 C       7      r7     0.0006
  10404 C          -25.2071    14.6293    15.0805 C       7      r7     0.0006
  10405 C          -24.2928    14.9423    13.9902 C       7      r7    -0.0006
  10406 C          -23.0206    14.1610    13.6737 C       7      r7     0.0002
  10407 C          -22.4476    14.3047    12.3974 C       7      r7    -0.0011
  10408 C          -22.1277    13.7384    14.7598 C       7      r7     0.0003
  10409 C          -20.8709    14.0838    12.0952 C       7      r7     0.0006
  10410 C          -20.6770    13.5623    14.5672 C       5      r5     0.0009
  10411 C          -20.1599    13.2974    13.2459 C       5      r5     0.0011
  10412 C          -20.1967    15.4789    12.1889 C       7      r7     0.0022
  10413 C          -19.7665    13.9896    15.5803 C       5      r5     0.0006
  10414 C          -18.7806    13.1251    13.4526 C       5      r5    -0.0008
  10415 C          -18.7437    15.5351    11.9638 C       7      r7    -0.0006
  10416 C          -18.5362    14.0441    14.7454 C       5      r5     0.0005
  10417 C          -18.2004    15.3046    14.4152 C       0      r0     0.0012
  10418 C          -17.9525    12.3757    12.4323 C       0      r0    -0.0001
  10419 C          -16.9730    13.0591    11.5204 C       7      r7     0.0008
  10420 C          -16.4701    11.7347    15.9663 C       6      r6    -0.0010
  10421 C          -15.4948    12.6007    15.2678 C       6      r6    -0.0016
  10422 C          -15.4094    12.7602    13.8109 C       6      r6     0.0012
  10423 C          -15.1996    11.8127    12.7073 C       6      r6    -0.0078
  10424 C          -15.0159    15.0633    14.0551 C       6      r6    -0.0010
  10425 C          -14.7396    13.9328    13.3002 C       6      r6    -0.0019
  10426 C          -14.7826    14.9859    15.4288 C       6      r6    -0.0003
  10427 C          -13.8561    14.2199    12.2372 C       6      r6    -0.0006
  10428 C          -13.7654    15.6007    11.8080 C       6      r6    -0.0006
  10429 C          -12.9889    11.4725    13.7449 C       7      r7    -0.0085
  10430 C          -12.7279    13.3410    12.0822 C       7      r7    -0.0036
  10431 C          -12.1782    12.5999    13.2240 C       7      r7     0.0032
  10432 C          -11.1413    13.2992    14.0024 C       7      r7     0.0007
  10433 C          -11.1080    13.5239    15.4771 C       7      r7     0.0008
  10434 C          -10.1816    14.6582    15.6103 C       5      r5    -0.0009
  10435 C          -10.0325    14.0217    13.3429 C       7      r7    -0.0017
  10436 C           -9.5270    14.9660    14.3238 C       5      r5    -0.0007
  10437 C           -9.4641    13.5490    12.0542 C       7      r7    -0.0018
  10438 C           -8.0127    13.1700    12.2137 C       7      r7    -0.0002
  10439 C           -7.6461    11.8368    11.7783 C       7      r7    -0.0008
  10440 C           -7.1353    15.5537    11.9049 C       7      r7     0.0000
  10441 C           -7.0037    14.1958    12.5461 C       0      r0    -0.0007
  10442 C           -6.3631    13.9810    15.0676 C       7      r7    -0.0004
  10443 C           -6.1625    12.6764    15.6360 C       7      r7     0.0005
  10444 C           -6.0892    13.8463    13.6439 C       0      r0    -0.0004
  10445 C           -5.9779    15.2789    15.7072 C       7      r7    -0.0003
  10446 C           -5.6554    11.3153    14.9047 C       0      r0     0.0026
  10447 C           -4.6355    13.5113    13.5506 C       0      r0    -0.0000
  10448 C           -4.2408    13.1257    12.3764 C       0      r0     0.0001
  10449 C           -3.6115    14.1143    14.5370 C       5      r5     0.0003
  10450 C           -2.8343    15.1646    13.9227 C       5      r5    -0.0001
  10451 C           -1.9439    15.5924    15.0408 C       5      r5     0.0000
  10452 C           -1.5664    13.8744    11.8194 C       6      r6     0.0008
  10453 C           -0.2798    13.8671    12.5818 C       6      r6     0.0005
  10454 C           -0.1723    11.4595    11.6762 C       7      r7    -0.0003
  10455 C            0.5033    15.0240    13.0266 C       5      r5     0.0005
  10456 C            0.4389    12.6681    12.2176 C       6      r6    -0.0005
  10457 C            1.9118    15.1261    12.7409 C       5      r5     0.0003
  10458 C            1.9103    12.7205    11.9936 C       6      r6    -0.0005
  10459 C            2.5885    14.0080    12.0648 C       6      r6     0.0009
  10460 C            2.6673    11.6217    11.4494 C       6      r6    -0.0002
  10461 C            3.9818    12.6561    15.7594 C       6      r6    -0.0006
  10462 C            4.0111    14.1966    11.7234 C       6      r6     0.0006
  10463 C            4.7000    15.2277    12.5594 C       7      r7    -0.0002
  10464 C            4.6074    15.0215    15.0245 C       7      r7    -0.0002
  10465 C            4.8590    12.2375    14.5799 C       5      r5    -0.0006
  10466 C            5.1350    14.5331    13.7377 C       7      r7     0.0002
  10467 C            5.5913    13.0758    13.6680 C       5      r5     0.0005
  10468 C            6.4733    12.2695    12.8233 C       5      r5     0.0003
  10469 C            7.1302    12.3512    11.4618 C       5      r5     0.0007
  10470 C            7.2148    15.2918    14.9935 C       5      r5     0.0007
  10471 C            7.9693    14.3053    14.1615 C       5      r5     0.0008
  10472 C            8.3038    14.6464    12.7651 C       6      r6    -0.0001
  10473 C            8.7003    13.4686    15.0423 C       5      r5     0.0018
  10474 C            9.0317    13.9533    11.6681 C       7      r7    -0.0003
  10475 C            9.9710    12.7228    14.9549 C       7      r7     0.0010
  10476 C           10.6978    15.8286    11.5155 C       7      r7    -0.0001
  10477 C           11.1766    12.6491    14.0794 C       7      r7     0.0000
  10478 C           12.0135    13.8407    14.2759 C       7      r7     0.0002
  10479 C           12.4203    13.2292    11.8308 C       7      r7     0.0011
  10480 C           12.5541    14.1685    12.9434 C       7      r7     0.0012
  10481 C           12.6106    14.2627    15.5404 C       7      r7    -0.0015
  10482 C           12.6926    11.7925    11.6831 C       7      r7     0.0005
  10483 C           12.8020    15.6154    12.6645 C       7      r7     0.0011
  10484 C           14.0391    14.2885    15.5858 C       5      r5    -0.0012
  10485 C           14.9416    15.8864    13.8479 C       6      r6     0.0004
  10486 C           14.9571    14.5405    14.3648 C       6      r6     0.0001
  10487 C           15.8690    13.5964    13.6878 C       7      r7     0.0014
  10488 C           16.4363    12.3201    14.1864 C       7      r7     0.0015
  10489 C           16.9908    14.2869    12.9967 C       7      r7     0.0004
  10490 C           17.1824    15.5590    13.7114 C       7      r7    -0.0011
  10491 C           17.4060    12.6234    15.2310 C       7      r7    -0.0004
  10492 C           17.5406    14.2093    11.6063 C       7      r7    -0.0013
  10493 C           17.9555    15.2759    14.9087 C       7      r7    -0.0005
  10494 C           17.9959    13.9709    15.5349 C       7      r7    -0.0001
  10495 C           18.8419    12.0146    11.9086 C       7      r7    -0.0016
  10496 C           20.2889    11.6828    11.9162 C       7      r7    -0.0007
  10497 C           20.4842    15.7576    13.7677 C       5      r5     0.0036
  10498 C           20.8346    14.6161    13.0904 C       7      r7    -0.0133
  10499 C           20.5599    15.7201    15.1606 C       6      r6     0.0002
  10500 C           20.8772    13.3164    13.7985 C       7      r7     0.0025
  10501 C           21.0464    14.9575    11.7814 C       7      r7     0.0374
  10502 C           21.2446    12.1927    12.9080 C       7      r7    -0.0021
  10503 C           21.1041    14.6288    15.7757 C       6      r6     0.0005
  10504 C           21.3839    13.4289    15.1082 C       7      r7     0.0001
  10505 C           22.1723    12.3865    15.7081 C       7      r7     0.0002
  10506 C           22.6821    12.3443    12.6273 C       7      r7    -0.0004
  10507 C           22.9614    13.2338    11.4859 C       7      r7     0.0066
  10508 C           23.1336    11.6098    14.9405 C       7      r7    -0.0013
  10509 C           23.6336    11.8124    13.5909 C       7      r7    -0.0020
  10510 C           24.4538    15.6879    15.6175 C       7      r7    -0.0002
  10511 C           24.9311    11.4975    12.8863 C       7      r7    -0.0028
  10512 C          -24.7097    16.0175    13.1578 C       7      r7    -0.0005
  10513 C          -24.1544    16.0244    11.7773 C       7      r7    -0.0028
  10514 C          -23.0645    19.3528    15.9060 C       7      r7    -0.0030
  10515 C          -22.1876    19.7394    13.4811 C       6      r6    -0.0039
  10516 C          -22.0320    19.1945    14.8408 C       7      r7    -0.0033
  10517 C          -21.0868    19.3604    12.4539 C       5      r5    -0.0006
  10518 C          -20.7601    16.8293    12.0605 C       7      r7     0.0017
  10519 C          -20.8396    18.4961    15.3195 C       7      r7    -0.0002
  10520 C          -20.7068    17.9252    13.0169 C       5      r5    -0.0003
  10521 C          -20.0299    17.9108    14.2703 C       5      r5     0.0018
  10522 C          -18.5397    17.8790    14.6132 C       5      r5     0.0013
  10523 C          -17.9742    16.5576    13.9356 C       6      r6     0.0018
  10524 C          -17.8364    16.5880    12.4604 C       6      r6    -0.0016
  10525 C          -17.8974    18.9003    12.1791 C       6      r6     0.0002
  10526 C          -17.6320    19.0176    13.7002 C       7      r7    -0.0007
  10527 C          -17.3288    17.6865    11.6377 C       6      r6     0.0010
  10528 C          -16.1468    18.5985    13.7949 C       7      r7    -0.0002
  10529 C          -15.6913    17.3530    14.3451 C       6      r6     0.0007
  10530 C          -15.2957    16.2627    13.5184 C       6      r6    -0.0012
  10531 C          -15.0680    18.9958    12.8695 C       7      r7     0.0006
  10532 C          -15.0936    17.3605    15.6627 C       6      r6     0.0027
  10533 C          -14.5072    16.6102    12.4795 C       6      r6    -0.0018
  10534 C          -14.1988    18.0040    12.2948 C       6      r6    -0.0012
  10535 C          -10.2563    18.4394    15.3116 C       6      r6     0.0011
  10536 C           -9.9209    19.2320    14.1390 C       6      r6     0.0001
  10537 C           -9.9243    17.0023    15.3319 C       5      r5     0.0009
  10538 C           -9.3115    16.4553    14.1564 C       5      r5    -0.0002
  10539 C           -9.3272    18.5979    12.9394 C       6      r6    -0.0005
  10540 C           -9.2019    19.3529    11.7004 C       6      r6    -0.0008
  10541 C           -8.7924    17.2039    13.0299 C       6      r6    -0.0005
  10542 C           -7.4182    16.7500    12.6693 C       7      r7     0.0007
  10543 C           -6.1872    18.4661    14.1178 C       5      r5     0.0005
  10544 C           -6.0649    17.4226    12.9433 C       7      r7     0.0003
  10545 C           -5.8659    17.7776    15.3065 C       5      r5     0.0007
  10546 C           -5.6605    19.7372    13.6039 C       5      r5     0.0002
  10547 C           -5.4443    16.4056    14.9261 C       5      r5     0.0006
  10548 C           -5.2699    18.2971    11.6831 C       7      r7     0.0004
  10549 C           -5.0471    16.4325    13.5188 C       5      r5     0.0003
  10550 C           -4.8034    19.5319    12.5106 C       5      r5    -0.0000
  10551 C           -3.7241    16.0585    13.0607 C       6      r6    -0.0004
  10552 C           -3.4087    16.4371    11.7200 C       5      r5    -0.0000
  10553 C           -0.5372    16.0046    15.1712 C       5      r5     0.0004
  10554 C            0.4007    16.0300    14.0759 C       5      r5    -0.0001
  10555 C            1.6534    16.7734    14.1484 C       5      r5    -0.0002
  10556 C            2.2069    17.6068    15.2481 C       0      r0     0.0011
  10557 C            2.3334    18.6136    11.1150 C       6      r6     0.0008
  10558 C            2.5735    16.3600    13.1391 C       5      r5    -0.0002
  10559 C            3.5849    19.0382    11.7057 C       6      r6    -0.0002
  10560 C            3.9973    16.5227    12.8908 C       7      r7    -0.0003
  10561 C            4.0390    18.9464    13.0901 C       0      r0     0.0010
  10562 C            4.4766    20.2773    13.5347 C       7      r7    -0.0008
  10563 C            4.5172    16.3814    15.4503 C       7      r7     0.0000
  10564 C            4.6828    17.6817    13.4807 C       7      r7     0.0000
  10565 C            4.8391    20.1734    14.9385 C       7      r7     0.0009
  10566 C            5.4387    17.2186    14.6663 C       7      r7     0.0003
  10567 C            6.2636    19.8975    15.2511 C       6      r6     0.0012
  10568 C            6.7825    16.6336    14.4654 C       6      r6     0.0002
  10569 C            7.0767    20.2952    14.0677 C       7      r7    -0.0005
  10570 C            7.6386    17.1175    13.3830 C       5      r5     0.0000
  10571 C            8.3313    19.5082    14.0772 C       7      r7     0.0004
  10572 C            8.3563    16.0886    12.6273 C       5      r5    -0.0002
  10573 C            8.4338    18.3466    13.1423 C       5      r5     0.0007
  10574 C            9.1182    19.6164    15.3255 C       7      r7     0.0014
  10575 C            9.6185    16.6869    12.0691 C       5      r5    -0.0003
  10576 C            9.4706    18.0899    12.1641 C       5      r5     0.0000
  10577 C           10.4765    19.0499    11.4778 C       5      r5     0.0007
  10578 C           11.7827    18.9094    12.3270 C       7      r7    -0.0001
  10579 C           11.7350    19.4826    14.7048 C       7      r7     0.0007
  10580 C           11.9746    18.4691    13.6937 C       7      r7     0.0007
  10581 C           12.5436    19.1587    15.9250 C       7      r7     0.0002
  10582 C           12.9702    17.8032    15.8076 C       5      r5    -0.0002
  10583 C           13.0043    18.9634    11.5380 C       7      r7     0.0007
  10584 C           13.2100    17.7458    14.2306 C       7      r7     0.0011
  10585 C           13.6427    16.4169    13.4945 C       0      r0     0.0008
  10586 C           14.1085    19.8113    12.0557 C       7      r7    -0.0004
  10587 C           14.5202    18.6578    14.3318 C       7      r7     0.0007
  10588 C           14.7348    19.6495    13.3832 C       7      r7    -0.0007
  10589 C           15.3577    18.2010    15.4550 C       5      r5    -0.0007
  10590 C           16.1969    20.6188    15.7492 C       6      r6     0.0002
  10591 C           16.1765    16.5649    13.2605 C       7      r7    -0.0003
  10592 C           16.2793    16.6473    11.8938 C       7      r7    -0.0016
  10593 C           16.8124    18.3727    15.4893 C       5      r5    -0.0017
  10594 C           17.2915    19.7122    15.3346 C       6      r6    -0.0000
  10595 C           18.4602    16.4777    15.7183 C       0      r0    -0.0015
  10596 C           18.6102    19.9257    15.9268 C       6      r6     0.0006
  10597 C           19.5069    18.4267    11.4804 C       5      r5    -0.0077
  10598 C           19.5785    18.1932    12.9307 C       5      r5     0.0040
  10599 C           19.8844    19.4247    15.3535 C       6      r6    -0.0003
  10600 C           20.0596    16.8140    12.9584 C       5      r5    -0.0104
  10601 C           19.8514    16.7733    15.9507 C       6      r6    -0.0006
  10602 C           20.0643    19.1914    13.8954 C       6      r6     0.0030
  10603 C           20.3236    16.1678    11.7212 C       5      r5     0.0344
  10604 C           21.3965    19.4468    13.3070 C       6      r6     0.0153
  10605 C           21.6841    19.3828    11.8353 C       6      r6     0.0364
  10606 C           22.2925    19.9042    15.6776 C       6      r6    -0.0043
  10607 C           22.3905    20.0137    14.2115 C       6      r6     0.0133
  10608 C           24.1666    18.4362    11.7441 C       7      r7     0.0149
  10609 C           24.7040    18.4433    13.0844 C       7      r7    -0.0017
  10610 C           24.5134    17.0772    15.1234 C       7      r7     0.0003
  10611 C           24.8345    19.6598    15.5542 C       7      r7    -0.0038
  10612 C           24.9498    19.7673    13.8422 C       5      r5    -0.0055
  10613 C           25.0005    17.1239    13.7201 C       7      r7     0.0015
  10614 C          -25.1602    22.0811    13.5273 C       5      r5    -0.0005
  10615 C           25.2064    24.4145    14.2038 C       6      r6     0.0257
  10616 C          -24.4961    20.8487    13.4219 C       5      r5     0.0038
  10617 C          -24.5559    23.3056    13.8854 C       6      r6     0.0215
  10618 C          -23.1611    23.3005    14.3237 C       6      r6     0.0065
  10619 C          -23.0102    20.9372    13.3296 C       6      r6     0.0013
  10620 C          -23.0685    23.9596    15.6819 C       5      r5     0.0044
  10621 C          -22.4161    22.1960    13.7645 C       6      r6     0.0033
  10622 C          -20.9262    22.7147    13.5281 C       5      r5     0.0022
  10623 C          -20.8378    24.1769    14.1472 C       5      r5    -0.0458
  10624 C          -20.6333    22.8145    11.9832 C       6      r6     0.0048
  10625 C          -20.1719    24.2366    15.3295 C       5      r5     0.2391
  10626 C          -20.0121    20.4199    12.7365 C       6      r6    -0.0010
  10627 C          -19.9550    21.5337    11.7768 C       6      r6    -0.0010
  10628 C          -19.7198    22.2127    14.3105 C       7      r7     0.0029
  10629 C          -19.1864    23.1356    15.2849 C       7      r7    -0.0548
  10630 C          -19.1808    20.9304    13.8132 C       7      r7     0.0001
  10631 C          -17.8124    20.4531    14.1472 C       7      r7    -0.0011
  10632 C          -16.7691    22.2386    15.6476 C       7      r7    -0.0056
  10633 C          -16.6396    21.1333    14.6484 C       7      r7     0.0017
  10634 C          -15.4435    24.7030    12.3871 C       7      r7     0.0003
  10635 C          -15.1715    20.8599    14.3187 C       7      r7    -0.0012
  10636 C          -14.6733    20.4075    13.0056 C       7      r7    -0.0009
  10637 C          -14.2967    23.2393    15.6277 C       7      r7    -0.0003
  10638 C          -14.1375    24.4085    12.9528 C       7      r7     0.0004
  10639 C          -14.0503    20.5018    15.3226 C       7      r7     0.0003
  10640 C          -13.5424    20.8228    12.1484 C       6      r6     0.0001
  10641 C          -13.4480    22.6428    14.5391 C       7      r7     0.0005
  10642 C          -13.5415    23.0339    13.1492 C       7      r7    -0.0007
  10643 C          -13.1117    22.1424    12.0021 C       6      r6    -0.0003
  10644 C          -12.8948    21.2816    14.8294 C       7      r7     0.0002
  10645 C          -11.5241    20.8788    15.1915 C       7      r7     0.0011
  10646 C          -10.6427    24.6540    11.4079 C       5      r5    -0.0006
  10647 C          -10.5660    23.9511    12.7002 C       5      r5     0.0010
  10648 C          -10.5243    20.5653    14.1422 C       6      r6    -0.0006
  10649 C           -9.9530    21.3578    13.0440 C       6      r6    -0.0005
  10650 C           -9.6774    22.8194    13.1034 C       6      r6     0.0001
  10651 C           -9.1083    20.8008    11.9930 C       6      r6    -0.0009
  10652 C           -8.2787    23.3152    13.0385 C       6      r6     0.0008
  10653 C           -7.9956    24.7276    13.3794 C       6      r6     0.0000
  10654 C           -7.2686    22.4803    12.3513 C       6      r6     0.0009
  10655 C           -6.6546   -24.9213    15.4762 C       6      r6     0.0001
  10656 C           -6.6143    21.6222    15.3138 C       0      r0     0.0006
  10657 C           -6.1498    21.0781    13.9983 C       6      r6     0.0004
  10658 C           -5.9811    21.9764    12.8712 C       6      r6     0.0004
  10659 C           -5.5721   -24.8905    11.7767 C       6      r6    -0.0005
  10660 C           -4.6325    21.9695    12.2231 C       6      r6     0.0010
  10661 C           -3.8989    20.6780    12.3250 C       6      r6     0.0004
  10662 C           -3.8536    23.1818    11.7811 C       0      r0     0.0025
  10663 C           -2.8726    24.3302    15.7913 C       7      r7    -0.0006
  10664 C           -2.4617    23.6733    12.0229 C       0      r0     0.0010
  10665 C           -2.3971    20.8034    12.0800 C       0      r0     0.0018
  10666 C           -2.4475    23.7228    14.5548 C       7      r7    -0.0013
  10667 C           -2.3539    24.4033    13.3005 C       6      r6    -0.0021
  10668 C           -2.1476    22.1982    14.3411 C       7      r7    -0.0010
  10669 C           -1.9355    21.7719    15.5885 C       7      r7    -0.0013
  10670 C           -1.5862    21.5664    13.0464 C       0      r0     0.0003
  10671 C           -0.3644    24.6717    11.7213 C       6      r6     0.0029
  10672 C           -0.1622    21.9026    13.0266 C       6      r6     0.0002
  10673 C            0.1761    24.4283    13.1357 C       6      r6    -0.0001
  10674 C            0.3640    23.1009    13.6901 C       6      r6    -0.0018
  10675 C            1.2181    22.8645    14.8815 C       6      r6    -0.0008
  10676 C            1.1362    21.2652    12.6104 C       7      r7     0.0016
  10677 C            2.2372    21.8576    14.8032 C       7      r7    -0.0018
  10678 C            2.3568    21.3877    13.4036 C       7      r7    -0.0002
  10679 C            3.7020    21.2793    12.7286 C       7      r7    -0.0002
  10680 C            4.1435    21.7537    11.4345 C       7      r7     0.0011
  10681 C            5.8253    24.8470    15.0275 C       7      r7     0.0005
  10682 C            6.0474    23.7554    13.0504 C       5      r5    -0.0085
  10683 C            6.2649    23.5367    11.6842 C       6      r6     0.0085
  10684 C            6.4037    22.8590    14.0668 C       7      r7     0.0020
  10685 C            6.5121    23.6023    15.2469 C       7      r7    -0.0021
  10686 C            7.2061    21.7073    13.7470 C       7      r7    -0.0017
  10687 C            8.6560    22.0524    13.6959 C       7      r7    -0.0011
  10688 C            9.2185    21.9771    15.0352 C       7      r7    -0.0002
  10689 C            9.5632    22.0296    12.5545 C       7      r7    -0.0006
  10690 C           10.1376    20.8553    15.3983 C       7      r7     0.0011
  10691 C           10.6894    24.0075    13.1623 C       5      r5    -0.0012
  10692 C           10.8704    22.6240    12.7868 C       7      r7    -0.0004
  10693 C           11.3058    20.8479    14.4441 C       7      r7     0.0004
  10694 C           11.3578    23.9525    14.4578 C       5      r5    -0.0004
  10695 C           11.8757    21.9819    13.7090 C       7      r7     0.0010
  10696 C           12.5318    23.0408    14.4488 C       5      r5     0.0011
  10697 C           12.8984    24.1682    11.5542 C       6      r6     0.0006
  10698 C           13.6856    23.8619    14.0181 C       6      r6     0.0003
  10699 C           13.9045    24.2605    12.6446 C       6      r6     0.0002
  10700 C           14.4194    24.5191    15.1435 C       6      r6    -0.0003
  10701 C           15.3552    21.7881    12.3717 C       5      r5    -0.0008
  10702 C           15.4655    21.0146    13.5550 C       5      r5     0.0000
  10703 C           15.9377    21.6785    14.7285 C       6      r6    -0.0003
  10704 C           16.2736    22.9063    12.2353 C       7      r7     0.0025
  10705 C           16.8018    22.8510    14.6830 C       7      r7     0.0035
  10706 C           17.3207    23.0561    13.2896 C       7      r7    -0.0080
  10707 C           18.6631    23.1498    12.9132 C       7      r7     0.0388
  10708 C           19.3006    23.1306    11.6085 C       7      r7    -0.0592
  10709 C           19.7046    23.1826    13.8992 C       7      r7    -0.0668
  10710 C           19.6569    23.5982    15.2405 C       7      r7     0.0061
  10711 C           21.0398    22.7768    13.6365 C       5      r5     0.2576
  10712 C           21.0618    23.6239    15.7483 C       7      r7     0.0017
  10713 O           21.5725    22.3706    12.3011 O       6      r6    -0.5273
  10714 C           21.8482    23.0154    14.6984 C       7      r7    -0.0602
  10715 C           23.1138    24.8320    11.7686 C       0      r0    -0.0180
  10716 C           23.2096    23.0139    14.3584 C       7      r7     0.0320
  10717 C           23.6672    20.5548    13.7204 C       5      r5     0.0151
  10718 C           23.8965    21.9828    13.7229 C       5      r5     0.0360
  10719 C           23.8088    24.2633    14.2776 C       7      r7    -0.0032
  10720 C          -24.9837   -20.5131    19.1560 C       0      r0     0.0005
  10721 C          -24.6838   -22.5700    17.5343 C       7      r7     0.0039
  10722 C          -24.4097   -23.9856    19.8143 C       7      r7     0.0001
  10723 C          -24.1222   -23.7000    18.3740 C       7      r7    -0.0033
  10724 C          -23.6465   -24.7037    15.9912 C       7      r7     0.0119
  10725 C          -23.3137   -24.4992    17.4520 C       7      r7     0.0124
  10726 C          -22.3155   -20.8949    19.1031 C       7      r7     0.0058
  10727 C          -21.9950   -21.1586    20.5096 C       7      r7    -0.0001
  10728 C          -21.2269   -24.9112    20.1097 C       7      r7     0.0064
  10729 O          -20.1189   -24.4648    16.2033 O       6      r6    -0.5066
  10730 C          -19.8867   -21.0988    17.8964 C       7      r7     0.0057
  10731 C          -19.9915   -22.5706    19.6998 C       7      r7    -0.0025
  10732 C          -19.7766   -24.8708    20.5871 C       7      r7     0.0011
  10733 C          -19.4805   -22.3982    18.3939 C       7      r7     0.0382
  10734 C          -18.8741   -24.5712    17.0286 C       5      r5     0.2521
  10735 C          -18.5476   -23.5628    17.8931 C       7      r7    -0.0394
  10736 C          -17.4098   -24.0282    18.5852 C       7      r7    -0.0024
  10737 C          -16.9781   -23.4693    19.9178 C       7      r7     0.0022
  10738 C          -16.7895   -21.5445    16.4322 C       7      r7     0.0056
  10739 C          -15.8930   -22.7243    20.4743 C       5      r5    -0.0017
  10740 C          -15.7388   -22.4012    16.9995 C       7      r7    -0.0005
  10741 C          -15.0853   -23.4845    16.1927 C       7      r7     0.0005
  10742 C          -14.9967   -21.8310    18.1965 C       0      r0    -0.0013
  10743 C          -14.6916   -22.4894    19.5153 C       0      r0    -0.0007
  10744 C          -14.4345   -24.5692    16.9058 C       7      r7    -0.0003
  10745 C          -14.3759   -20.6068    17.7110 C       0      r0    -0.0006
  10746 C          -13.8966   -20.5253    16.2774 C       5      r5    -0.0009
  10747 C          -13.3172   -22.9118    19.5980 C       0      r0    -0.0007
  10748 C          -12.7894   -24.2724    19.4303 C       6      r6    -0.0000
  10749 C          -12.3659   -21.7610    19.6366 C       6      r6     0.0005
  10750 C          -11.4455   -22.3237    17.2416 C       7      r7    -0.0006
  10751 C          -11.3459   -21.4807    16.0592 C       7      r7     0.0003
  10752 C          -11.4335   -21.5384    18.5098 C       7      r7     0.0013
  10753 C          -11.3396   -24.6497    19.4248 C       7      r7     0.0010
  10754 C          -10.7688   -23.6034    17.3713 C       0      r0     0.0003
  10755 C          -10.4969   -24.2561    16.0740 C       5      r5     0.0002
  10756 C          -10.2362   -20.8204    18.6865 C       7      r7     0.0002
  10757 C          -10.2242   -23.9973    18.6962 C       7      r7     0.0001
  10758 C          -10.0236   -20.3910    20.0255 C       5      r5    -0.0004
  10759 C           -9.0466   -20.6194    17.8213 C       7      r7    -0.0001
  10760 C           -8.9772   -20.8977    16.4103 C       7      r7     0.0002
  10761 C           -8.8043   -24.1636    19.0782 C       7      r7     0.0000
  10762 C           -8.4952   -24.3231    20.4959 C       7      r7     0.0016
  10763 C           -7.9597   -24.9702    16.1700 C       6      r6     0.0001
  10764 C           -6.0436   -24.5510    19.9854 C       7      r7     0.0003
  10765 C           -5.1666   -21.3881    17.1763 C       7      r7    -0.0009
  10766 C           -4.8775   -20.7522    20.3319 C       7      r7    -0.0010
  10767 C           -4.5866   -24.5058    20.4377 C       7      r7     0.0006
  10768 C           -4.1829   -21.8205    18.1946 C       7      r7    -0.0011
  10769 C           -3.8420   -21.5988    19.5628 C       7      r7    -0.0009
  10770 C           -3.4023   -22.8549    17.5032 C       7      r7    -0.0039
  10771 C           -2.6031   -23.4779    18.4652 C       7      r7     0.0102
  10772 C           -2.7336   -22.5436    19.7078 C       5      r5    -0.0027
  10773 C           -2.3433   -24.9211    18.3338 C       7      r7     0.0009
  10774 C            0.2672   -21.5787    17.0869 C       5      r5    -0.0103
  10775 C            0.2283   -22.3404    18.2986 C       5      r5     0.0312
  10776 C            0.4788   -23.7734    17.9091 C       7      r7    -0.0494
  10777 C            0.4442   -21.6127    19.5852 C       6      r6     0.0123
  10778 C            0.5726   -23.8055    16.4932 C       7      r7     0.0070
  10779 C            0.5239   -22.4923    15.9854 C       5      r5     0.0003
  10780 O            0.5150   -24.6386    20.2750 O       5      r5    -0.4953
  10781 C            0.6748   -24.8047    18.8276 C       7      r7     0.2536
  10782 C            1.7005   -20.9096    19.7617 C       7      r7     0.0075
  10783 C            2.9617   -20.7799    18.9832 C       7      r7     0.0021
  10784 C            4.2632   -20.8400    19.7178 C       7      r7     0.0061
  10785 C            4.4736   -20.5298    16.8979 C       7      r7    -0.0040
  10786 C            4.7954   -22.0294    16.9817 C       7      r7    -0.0034
  10787 C            5.0405   -22.1010    19.5813 C       7      r7     0.0027
  10788 C            5.1557   -22.6331    18.2264 C       7      r7    -0.0023
  10789 C            5.6681   -24.1331    16.0666 C       7      r7    -0.0000
  10790 C            6.1186   -22.3952    20.4554 C       7      r7    -0.0032
  10791 C            6.1111   -23.6731    18.4252 C       7      r7    -0.0022
  10792 C            6.4917   -24.3695    17.2155 C       7      r7    -0.0012
  10793 C            6.9010   -23.3441    19.6317 C       7      r7    -0.0031
  10794 C            8.1873   -23.8278    20.0475 C       7      r7    -0.0024
  10795 C            9.1837   -20.5224    16.3738 C       7      r7    -0.0020
  10796 C            9.1452   -24.4467    19.0450 C       7      r7    -0.0001
  10797 C           10.5457   -24.0173    19.1855 C       7      r7     0.0015
  10798 C           10.8833   -22.5771    19.2515 C       7      r7    -0.0005
  10799 C           11.1490   -21.9225    18.0269 C       7      r7     0.0003
  10800 C           11.1044   -20.4558    17.9952 C       7      r7    -0.0010
  10801 C           11.2503   -22.7467    16.9189 C       7      r7     0.0014
  10802 C           11.6041   -24.8324    19.8011 C       7      r7     0.0001
  10803 C           12.0528   -24.9443    16.5242 C       6      r6     0.0007
  10804 C           12.2924   -23.7259    17.0726 C       6      r6     0.0010
  10805 C           12.8175   -24.3401    20.4752 C       0      r0     0.0014
  10806 C           13.6909   -23.2334    17.2999 C       6      r6     0.0002
  10807 C           13.8228   -23.4270    19.9145 C       7      r7     0.0007
  10808 C           13.8294   -20.9869    19.8881 C       6      r6     0.0007
  10809 C           14.3114   -22.3732    16.3263 C       7      r7     0.0008
  10810 C           14.4260   -23.5097    18.5352 C       7      r7     0.0000
  10811 C           15.8861   -23.3814    18.5068 C       7      r7    -0.0000
  10812 C           16.4737   -23.0788    17.2568 C       5      r5    -0.0003
  10813 C           16.6198   -23.8398    19.7628 C       7      r7     0.0001
  10814 C           17.0998   -20.9560    18.9022 C       5      r5    -0.0003
  10815 C           17.7505   -22.4090    17.1888 C       5      r5     0.0002
  10816 C           18.2897   -21.5942    18.3396 C       5      r5     0.0008
  10817 C           19.4525   -21.0465    19.0496 C       7      r7     0.0012
  10818 C           19.7842   -24.5794    17.9758 C       7      r7    -0.0000
  10819 C           20.1046   -24.2319    19.3649 C       7      r7     0.0003
  10820 C           20.3113   -21.5006    16.1438 C       5      r5    -0.0001
  10821 C           20.4231   -23.0086    20.0332 C       7      r7     0.0009
  10822 C           20.7615   -23.9744    16.9895 C       7      r7    -0.0022
  10823 C           20.9529   -22.4759    16.9779 C       7      r7    -0.0012
  10824 C           20.8578   -21.6614    19.3897 C       7      r7     0.0016
  10825 C           21.6084   -21.8250    18.0969 C       7      r7    -0.0007
  10826 C           22.5186   -20.6741    17.7942 C       6      r6     0.0011
  10827 C           23.5216   -21.3705    20.4926 C       7      r7     0.0000
  10828 C           23.7336   -21.3897    17.4062 C       5      r5    -0.0020
  10829 C           23.7201   -22.3631    16.3133 C       5      r5    -0.0035
  10830 C           24.6286   -23.8847    20.1319 C       7      r7    -0.0017
  10831 C           25.0722   -21.3531    18.0093 C       5      r5    -0.0006
  10832 C           25.1436   -22.6371    16.1989 C       7      r7    -0.0037
  10833 C          -24.8773   -16.4479    17.5679 C       6      r6    -0.0002
  10834 C          -24.1873   -16.2396    16.2482 C       6      r6     0.0005
  10835 C          -23.5751   -19.3344    16.1062 C       5      r5    -0.0009
  10836 C          -23.5914   -20.1986    19.3543 C       7      r7    -0.0002
  10837 C          -22.7460   -18.1487    20.2348 C       7      r7    -0.0011
  10838 C          -21.7264   -17.9275    19.2192 C       7      r7    -0.0010
  10839 C          -21.1802   -16.5840    19.2519 C       6      r6    -0.0012
  10840 C          -21.0777   -18.8840    18.3369 C       7      r7    -0.0007
  10841 C          -21.1367   -20.3717    18.3589 C       7      r7     0.0034
  10842 C          -20.1995   -18.2411    17.3578 C       7      r7     0.0007
  10843 C          -20.1850   -16.0770    18.3098 C       6      r6    -0.0006
  10844 C          -20.0288   -16.8090    17.2135 C       7      r7    -0.0009
  10845 C          -19.8954   -15.9679    15.9557 C       7      r7    -0.0003
  10846 C          -19.1102   -18.9604    16.7764 C       7      r7     0.0005
  10847 C          -18.8337   -20.3216    17.2493 C       5      r5     0.0041
  10848 C          -17.9032   -18.2470    16.3579 C       7      r7    -0.0007
  10849 C          -17.5971   -16.8096    16.2573 C       7      r7    -0.0005
  10850 C          -17.3934   -20.4411    17.2376 C       5      r5    -0.0012
  10851 C          -16.8595   -19.1224    16.8283 C       5      r5    -0.0014
  10852 C          -16.7045   -16.2048    17.2598 C       7      r7     0.0008
  10853 C          -15.6496   -18.4542    17.3155 C       5      r5    -0.0004
  10854 C          -15.3977   -16.9341    17.3678 C       7      r7     0.0002
  10855 C          -15.0594   -16.0021    19.9938 C       5      r5    -0.0007
  10856 C          -14.7194   -19.2111    18.1477 C       5      r5    -0.0001
  10857 C          -14.6586   -16.9836    18.9260 C       5      r5     0.0004
  10858 C          -14.3807   -16.1281    16.4116 C       7      r7     0.0003
  10859 C          -14.2279   -18.3851    19.2492 C       5      r5     0.0004
  10860 C          -13.3446   -16.4121    18.5702 C       7      r7    -0.0007
  10861 C          -13.1028   -18.8543    20.0158 C       7      r7     0.0006
  10862 C          -12.9488   -16.2215    16.3574 C       7      r7    -0.0016
  10863 C          -12.5856   -17.0635    17.5178 C       7      r7     0.0001
  10864 C          -11.8512   -18.0985    20.2223 C       7      r7    -0.0010
  10865 C          -11.4417   -17.9466    17.7650 C       6      r6    -0.0004
  10866 C          -10.8787   -17.9308    19.1145 C       7      r7    -0.0006
  10867 C          -10.6789   -18.2315    16.5387 C       6      r6    -0.0006
  10868 C           -9.4644   -17.6595    19.2073 C       7      r7     0.0008
  10869 C           -9.2805   -17.8716    16.6241 C       6      r6    -0.0012
  10870 C           -8.7639   -17.3840    17.8964 C       6      r6     0.0001
  10871 C           -8.6985   -17.4299    20.4109 C       7      r7    -0.0045
  10872 C           -8.6582   -20.1158    20.2094 C       5      r5     0.0014
  10873 C           -8.1169   -20.2455    18.8694 C       7      r7     0.0009
  10874 C           -7.6349   -16.4705    17.9175 C       7      r7    -0.0003
  10875 C           -7.2379   -17.5112    20.2002 C       6      r6     0.0005
  10876 C           -6.7974   -19.8160    16.1760 C       7      r7     0.0007
  10877 C           -6.9771   -16.4281    19.2197 C       7      r7     0.0008
  10878 C           -6.7047   -20.0025    18.7244 C       7      r7     0.0013
  10879 C           -6.1698   -20.3871    17.4077 C       7      r7     0.0003
  10880 C           -5.7516   -19.6401    19.7892 C       7      r7    -0.0025
  10881 C           -3.8697   -16.8417    16.6366 C       7      r7    -0.0010
  10882 C           -3.5870   -19.2996    16.0459 C       7      r7     0.0000
  10883 C           -3.1649   -18.1377    16.7136 C       7      r7     0.0003
  10884 C           -2.4585   -20.1743    16.1063 C       5      r5    -0.0006
  10885 C           -1.7202   -18.2527    17.0631 C       7      r7    -0.0017
  10886 C           -1.3375   -19.6525    16.8423 C       5      r5    -0.0017
  10887 C           -0.6664   -17.3383    16.5927 C       7      r7     0.0004
  10888 C            0.0625   -20.1201    16.9302 C       6      r6    -0.0015
  10889 C            0.6953   -17.7136    16.6609 C       5      r5    -0.0011
  10890 C            1.0289   -19.1072    16.9740 C       5      r5    -0.0037
  10891 C            1.9260   -16.8547    16.6365 C       7      r7    -0.0002
  10892 C            2.5101   -19.0523    17.1299 C       7      r7    -0.0033
  10893 C            2.9670   -17.6744    17.0948 C       7      r7    -0.0023
  10894 C            3.1856   -20.2581    17.5706 C       7      r7    -0.0041
  10895 C            4.4335   -17.1514    17.1663 C       7      r7     0.0009
  10896 C            4.7479   -15.8154    17.6185 C       7      r7     0.0004
  10897 C            5.0675   -19.7262    20.1449 C       7      r7    -0.0439
  10898 C            5.4205   -17.9923    16.5598 C       7      r7    -0.0016
  10899 C            5.4665   -19.4982    16.6923 C       7      r7    -0.0034
  10900 C            6.5671   -19.7505    19.7635 C       7      r7     0.0292
  10901 C            6.8913   -19.7773    17.0687 C       6      r6     0.0000
  10902 C            6.9167   -15.9553    16.2874 C       6      r6    -0.0001
  10903 C            7.2463   -19.8779    18.4604 C       5      r5    -0.0083
  10904 C            7.7840   -20.2615    16.0024 C       5      r5    -0.0032
  10905 C            8.6854   -19.9208    18.7431 C       5      r5     0.0023
  10906 C            8.8685   -20.1902    20.1632 C       5      r5     0.0013
  10907 C            9.0881   -16.2706    19.6683 C       7      r7     0.0349
  10908 C            9.6164   -20.1608    17.6884 C       7      r7    -0.0020
  10909 C           11.1587   -18.4534    19.5478 C       7      r7    -0.0001
  10910 C           11.3731   -19.9515    19.6154 C       7      r7    -0.0016
  10911 C           11.2137   -16.2466    18.2507 C       7      r7    -0.0015
  10912 C           11.2448   -17.7201    18.3027 C       7      r7    -0.0019
  10913 C           11.9118   -18.4420    17.2259 C       5      r5    -0.0013
  10914 C           11.9604   -19.8025    16.9933 C       5      r5     0.0006
  10915 C           12.6994   -20.2364    20.4297 C       7      r7    -0.0016
  10916 C           13.0580   -20.1511    16.1917 C       5      r5     0.0013
  10917 C           12.9266   -17.8918    16.4845 C       7      r7     0.0012
  10918 C           13.1712   -16.5116    16.6601 C       7      r7     0.0007
  10919 C           14.4801   -15.8756    16.5943 C       7      r7     0.0006
  10920 C           14.7385   -20.0887    19.1575 C       6      r6     0.0006
  10921 C           14.9499   -18.7604    19.7239 C       7      r7     0.0009
  10922 C           15.2742   -18.8909    16.1918 C       7      r7    -0.0001
  10923 C           15.8709   -20.4171    18.3104 C       6      r6     0.0003
  10924 C           15.7585   -16.4724    16.3349 C       7      r7     0.0009
  10925 C           16.2400   -18.1346    19.4243 C       7      r7     0.0006
  10926 C           15.9675   -19.1724    17.4353 C       6      r6     0.0002
  10927 C           16.7076   -17.0039    20.3405 C       7      r7     0.0013
  10928 C           16.8626   -18.2436    18.1459 C       7      r7     0.0002
  10929 C           17.6589   -20.3094    20.1068 C       5      r5    -0.0004
  10930 C           18.0749   -17.3493    17.9114 C       7      r7     0.0001
  10931 C           18.1387   -16.1923    17.0917 C       5      r5    -0.0009
  10932 C           19.0722   -17.6754    20.1711 C       7      r7    -0.0001
  10933 C           19.0838   -20.1758    20.1139 C       7      r7    -0.0003
  10934 C           19.2563   -17.1667    18.8070 C       7      r7    -0.0006
  10935 C           22.1090   -19.8007    16.6754 C       7      r7     0.0005
  10936 C           22.1898   -19.3778    20.4227 C       7      r7     0.0011
  10937 C           23.0609   -18.7383    16.2818 C       7      r7    -0.0003
  10938 C           23.5218   -18.9785    19.9069 C       5      r5     0.0006
  10939 C           24.0311   -17.7568    19.2259 C       6      r6    -0.0000
  10940 C           24.2893   -20.1972    20.0119 C       5      r5     0.0000
  10941 C           24.4262   -18.6114    16.8510 C       6      r6    -0.0013
  10942 C           24.3151   -16.5099    20.0109 C       6      r6    -0.0003
  10943 C           24.7534   -17.6593    17.9137 C       6      r6    -0.0002
  10944 C          -25.1762   -12.5604    18.0863 C       7      r7     0.0315
  10945 C          -25.1698   -15.1875    18.1321 C       6      r6    -0.0013
  10946 C          -25.1712   -13.8456    17.3783 C       6      r6     0.0011
  10947 C          -24.3965   -11.3352    17.6910 C       7      r7     0.0256
  10948 C          -22.2700   -13.1481    20.1182 C       6      r6    -0.0011
  10949 C          -22.1700   -11.8935    19.6009 C       6      r6    -0.0019
  10950 C          -22.0199   -11.9380    18.2297 C       6      r6    -0.0011
  10951 C          -21.9743   -15.5657    19.8086 C       6      r6    -0.0006
  10952 C          -21.6046   -14.2336    19.5310 C       6      r6    -0.0005
  10953 C          -20.9618   -12.6698    17.8300 C       7      r7    -0.0005
  10954 C          -20.6135   -13.7760    18.6570 C       7      r7    -0.0010
  10955 C          -20.1681   -12.0259    16.9453 C       7      r7     0.0001
  10956 C          -19.6432   -14.8145    18.3027 C       7      r7    -0.0001
  10957 C          -18.7917   -11.9764    17.3305 C       7      r7     0.0002
  10958 C          -18.3289   -14.2854    18.0520 C       7      r7     0.0016
  10959 C          -18.3613   -12.8715    18.4611 C       7      r7     0.0004
  10960 C          -18.0736   -12.4036    19.8291 C       7      r7     0.0011
  10961 C          -16.9773   -14.8375    17.8065 C       7      r7     0.0013
  10962 C          -16.6944   -11.9669    19.8846 C       7      r7    -0.0002
  10963 C          -16.0497   -13.6852    17.7997 C       7      r7    -0.0004
  10964 C          -16.0204   -12.4732    18.6419 C       7      r7    -0.0003
  10965 C          -15.1084   -13.6932    16.6853 C       7      r7    -0.0006
  10966 C          -14.6581   -11.9247    18.5427 C       6      r6    -0.0009
  10967 C          -14.4574   -12.5144    16.1459 C       6      r6    -0.0004
  10968 C          -13.9518   -11.6645    17.2314 C       6      r6    -0.0006
  10969 C          -14.0911   -14.9248    20.1200 C       5      r5    -0.0003
  10970 C          -13.8537   -12.5374    19.6361 C       6      r6    -0.0013
  10971 C          -12.9880   -15.2704    19.2467 C       7      r7    -0.0009
  10972 C          -12.5703   -11.9892    19.8436 C       6      r6     0.0004
  10973 C          -12.0450   -15.0347    16.3885 C       7      r7     0.0007
  10974 C          -11.7766   -14.5753    18.9713 C       7      r7     0.0098
  10975 C          -11.4824   -14.4686    17.6112 C       7      r7    -0.0071
  10976 C          -10.9727   -13.9247    19.9526 C       6      r6    -0.0582
  10977 C          -10.5789   -13.4254    17.3168 C       5      r5     0.0001
  10978 C           -9.8973   -13.1157    19.5105 C       6      r6     0.2453
  10979 C           -9.7383   -12.7795    18.1538 C       6      r6    -0.0357
  10980 C           -8.7982   -11.9317    17.4248 C       6      r6     0.0340
  10981 O           -8.8721   -12.5109    20.4195 O       0      r0    -0.5103
  10982 C           -7.3894   -12.1641    17.6498 C       7      r7     0.0129
  10983 C           -7.2962   -15.7178    16.6563 C       7      r7     0.0002
  10984 C           -7.1033   -13.6259    17.7260 C       7      r7     0.0022
  10985 C           -6.7092   -14.3943    16.5687 C       7      r7    -0.0025
  10986 C           -6.6779   -13.9080    19.0569 C       7      r7     0.0058
  10987 C           -6.3097   -15.1814    19.6175 C       7      r7    -0.0052
  10988 C           -6.3391   -12.7370    19.8058 C       5      r5     0.0371
  10989 C           -5.7068   -11.6814    19.1758 C       5      r5    -0.0010
  10990 C           -5.3679   -11.5453    16.7510 C       7      r7    -0.0046
  10991 C           -4.6752   -12.8771    16.5923 C       7      r7    -0.0007
  10992 C           -3.7408   -13.2470    17.6508 C       7      r7    -0.0026
  10993 C           -3.7348   -14.6634    18.1386 C       7      r7    -0.0021
  10994 C           -3.4974   -14.9128    19.5876 C       7      r7    -0.0022
  10995 C           -3.1975   -15.5260    17.1105 C       7      r7    -0.0006
  10996 C           -2.5954   -12.3457    17.8574 C       7      r7    -0.0026
  10997 C           -2.1171   -15.2314    19.8160 C       7      r7     0.0008
  10998 C           -1.8367   -15.2061    16.7884 C       7      r7     0.0005
  10999 C           -1.2377   -12.8516    17.6280 C       7      r7    -0.0012
  11000 C           -1.1415   -14.3082    17.7380 C       7      r7    -0.0012
  11001 C           -0.9567   -14.6104    19.1356 C       7      r7    -0.0019
  11002 C           -0.2706   -13.7422    20.0968 C       7      r7    -0.0039
  11003 C           -0.2108   -12.0354    18.3654 C       6      r6    -0.0029
  11004 C           -0.0793   -12.3440    19.7830 C       7      r7     0.0006
  11005 C            1.0610   -13.2711    16.0648 C       7      r7     0.0009
  11006 C            1.9624   -15.3746    16.5343 C       7      r7     0.0007
  11007 C            1.9786   -13.2469    17.1550 C       7      r7    -0.0019
  11008 C            2.4721   -14.4958    17.5548 C       7      r7    -0.0038
  11009 C            2.7617   -12.0839    17.4244 C       7      r7    -0.0005
  11010 C            3.6473   -15.0018    18.2692 C       7      r7     0.0026
  11011 C            3.5683   -13.0664    19.7117 C       7      r7    -0.0014
  11012 C            3.5329   -12.0845    18.6151 C       7      r7    -0.0023
  11013 C            3.7569   -14.4909    19.5887 C       7      r7    -0.0115
  11014 C            6.0371   -15.2454    17.2433 C       6      r6     0.0008
  11015 C            6.2439   -12.4402    16.1502 C       0      r0    -0.0023
  11016 C            6.5327   -14.1062    18.0464 C       5      r5    -0.0051
  11017 C            6.7340   -12.7790    17.5556 C       5      r5    -0.0024
  11018 C            7.6747   -14.4323    18.9257 C       7      r7     0.0112
  11019 C            7.8643   -12.1264    18.2192 C       5      r5    -0.0029
  11020 C            7.7871   -15.6476    19.7995 C       7      r7    -0.0574
  11021 C            8.4167   -13.2385    19.0267 C       7      r7    -0.0013
  11022 C            9.7429   -13.1136    19.6609 C       7      r7     0.0011
  11023 C           10.1041   -11.8304    20.3334 C       7      r7    -0.0016
  11024 C           10.2177   -15.5355    19.0559 C       7      r7    -0.0072
  11025 C           10.5412   -14.2814    19.7895 C       7      r7     0.0020
  11026 C           11.6057   -11.3523    20.4183 C       5      r5    -0.0002
  11027 C           12.3400   -15.6365    17.4932 C       5      r5    -0.0014
  11028 C           13.0830   -14.3804    17.7057 C       5      r5    -0.0001
  11029 C           13.3319   -14.0695    19.1167 C       0      r0    -0.0006
  11030 C           13.3591   -15.2527    20.0480 C       6      r6    -0.0008
  11031 C           13.7133   -12.8192    19.7826 C       5      r5    -0.0001
  11032 C           14.1980   -14.4387    16.7758 C       7      r7     0.0016
  11033 C           15.1164   -12.7774    20.1717 C       5      r5     0.0011
  11034 C           15.9548   -15.7688    20.3417 C       7      r7     0.0011
  11035 C           16.4681   -13.3934    20.0183 C       6      r6    -0.0000
  11036 C           16.7704   -11.3170    16.1900 C       7      r7    -0.0002
  11037 C           16.9685   -14.1514    16.0171 C       7      r7    -0.0007
  11038 C           16.9507   -15.5657    16.4538 C       7      r7    -0.0002
  11039 C           17.3267   -12.2194    20.0109 C       6      r6    -0.0011
  11040 C           17.3955   -11.9781    17.2774 C       7      r7    -0.0004
  11041 C           17.8423   -13.2708    16.8043 C       6      r6    -0.0005
  11042 C           19.0417   -13.8150    17.4812 C       6      r6     0.0004
  11043 C           19.1699   -15.2677    17.6441 C       5      r5    -0.0004
  11044 C           19.3145   -11.5240    18.6362 C       5      r5    -0.0004
  11045 C           19.7075   -12.9265    18.4141 C       5      r5     0.0022
  11046 C           19.9408   -15.8688    18.7227 C       5      r5    -0.0005
  11047 C           20.5074   -13.5506    19.4339 C       7      r7     0.0020
  11048 C           20.8017   -12.3067    20.1906 C       7      r7     0.0012
  11049 C           20.7158   -14.9838    19.6156 C       7      r7     0.0001
  11050 O           23.4638   -11.2663    16.1580 O       6      r6    -0.5165
  11051 C           23.8916   -13.9527    19.7271 C       6      r6     0.0048
  11052 C           24.4353   -15.2201    19.2656 C       6      r6     0.0001
  11053 C           24.6574   -12.7233    19.4044 C       7      r7     0.0004
  11054 C           24.9938   -14.0709    15.9751 C       5      r5     0.0310
  11055 C          -25.2099    -7.3937    18.2257 C       7      r7    -0.0022
  11056 C          -25.0349   -10.0613    18.1606 C       7      r7     0.0175
  11057 C          -24.6901    -6.9819    19.5312 C       7      r7    -0.0008
  11058 C          -24.7891    -8.7302    17.6324 C       7      r7     0.0104
  11059 C          -23.8179    -7.3920    15.8970 C       7      r7     0.0031
  11060 C          -23.7250    -7.9809    20.1273 C       7      r7    -0.0018
  11061 C          -23.5165    -8.4179    16.9490 C       7      r7     0.0014
  11062 C          -22.9932   -11.4206    17.2566 C       6      r6    -0.0035
  11063 C          -22.5727    -8.4364    19.3423 C       7      r7    -0.0006
  11064 C          -22.3358   -11.2769    15.9199 C       6      r6     0.0052
  11065 C          -22.3990    -8.1388    17.8708 C       7      r7    -0.0011
  11066 C          -22.1038   -10.7303    20.3390 C       7      r7    -0.0012
  11067 C          -21.6626    -9.4065    19.8757 C       7      r7    -0.0009
  11068 C          -21.0717    -7.9981    17.3036 C       5      r5    -0.0019
  11069 C          -20.4491    -7.2303    16.2601 C       5      r5    -0.0028
  11070 C          -20.2239    -9.2814    19.4211 C       6      r6    -0.0002
  11071 C          -20.0581    -8.8045    18.0600 C       5      r5    -0.0000
  11072 C          -19.0610    -9.5995    20.2022 C       6      r6     0.0000
  11073 C          -19.0184    -7.4157    16.3996 C       5      r5    -0.0001
  11074 C          -18.7945    -8.3862    17.5111 C       5      r5    -0.0012
  11075 C          -17.9243   -11.1640    16.5685 C       5      r5     0.0013
  11076 C          -17.8468    -9.6433    19.4789 C       6      r6     0.0020
  11077 C          -17.6667    -9.0265    18.1404 C       6      r6     0.0012
  11078 C          -16.6474    -9.5397    20.3965 C       6      r6    -0.0004
  11079 C          -16.6266   -10.4449    16.4392 C       5      r5    -0.0004
  11080 C          -16.4261    -9.3418    17.3809 C       0      r0    -0.0005
  11081 C          -16.0339    -7.1732    18.0606 C       6      r6     0.0001
  11082 C          -15.5554    -7.0309    19.4588 C       6      r6    -0.0001
  11083 C          -15.4421    -8.2579    17.2893 C       6      r6     0.0000
  11084 C          -14.3688    -7.8132    19.7601 C       5      r5    -0.0007
  11085 C          -13.9497    -8.4225    17.3088 C       6      r6    -0.0012
  11086 C          -13.4950    -8.4350    18.7254 C       5      r5    -0.0003
  11087 C          -13.0739    -7.8328    16.3393 C       6      r6    -0.0016
  11088 C          -12.5427   -11.4831    17.3028 C       5      r5    -0.0003
  11089 C          -12.2365    -8.9061    19.2147 C       5      r5    -0.0020
  11090 C          -12.0252   -11.3252    18.6548 C       5      r5     0.0010
  11091 C          -11.7442   -10.5046    16.4775 C       5      r5    -0.0000
  11092 C          -11.6117    -7.4999    16.5875 C       7      r7    -0.0018
  11093 C          -11.3756   -10.0190    18.7258 C       5      r5     0.0140
  11094 C          -10.9134    -9.7186    17.3751 C       5      r5     0.0026
  11095 C          -10.6152    -8.2525    17.3452 C       7      r7     0.0005
  11096 C           -9.3109    -8.0226    17.9727 C       7      r7     0.0042
  11097 C           -9.0728    -7.7550    19.3862 C       6      r6     0.0012
  11098 C           -9.0083   -11.3207    16.1533 C       6      r6    -0.0070
  11099 C           -8.0041    -8.5141    20.0569 C       6      r6     0.0117
  11100 C           -7.9696    -7.9831    17.1672 C       7      r7     0.0015
  11101 C           -7.4524    -9.2491    16.3459 C       6      r6     0.0028
  11102 C           -6.7453    -8.0868    19.3913 C       6      r6     0.0007
  11103 C           -6.8460    -7.5461    18.1031 C       6      r6     0.0005
  11104 C           -6.2495   -11.2863    17.8917 C       7      r7     0.0067
  11105 C           -6.0846    -9.3039    15.9878 C       6      r6    -0.0005
  11106 C           -5.7196    -7.3956    20.2085 C       6      r6    -0.0015
  11107 C           -5.5380    -7.2896    17.4873 C       6      r6    -0.0007
  11108 C           -5.2694    -8.1059    16.3223 C       6      r6    -0.0006
  11109 C           -4.7734   -11.1933    20.2094 C       5      r5     0.0021
  11110 C           -3.6241   -10.4403    20.0042 C       7      r7     0.0001
  11111 C           -2.9582    -9.9351    18.7665 C       7      r7    -0.0030
  11112 C           -2.6512   -10.8579    17.7033 C       6      r6    -0.0017
  11113 C           -2.8110    -8.8377    16.3949 C       6      r6    -0.0014
  11114 C           -2.4039    -8.5254    18.7937 C       7      r7     0.0024
  11115 C           -2.4585    -7.4601    19.8195 C       7      r7     0.0021
  11116 C           -2.2241   -10.1793    16.4390 C       6      r6    -0.0017
  11117 C           -2.0882    -8.0601    17.4608 C       6      r6     0.0007
  11118 C            0.4158   -10.8671    16.2184 C       7      r7    -0.0044
  11119 C            0.3911   -10.9324    17.7141 C       6      r6     0.0148
  11120 C            0.3507   -10.1000    20.1075 C       5      r5     0.0427
  11121 C            0.7371    -9.8733    18.6629 C       6      r6    -0.0662
  11122 C            1.3855    -8.6832    18.4023 C       6      r6     0.2557
  11123 O            1.6364    -7.5519    19.3716 O       6      r6    -0.4991
  11124 C            1.8754    -8.7347    16.9821 C       6      r6    -0.0492
  11125 C            2.6524    -7.6817    16.6271 C       0      r0     0.0433
  11126 C            2.9642   -11.1152    16.3640 C       7      r7    -0.0007
  11127 C            4.1327   -10.2626    16.3331 C       6      r6     0.0014
  11128 C            4.3229   -10.9012    18.7032 C       6      r6     0.0031
  11129 C            4.7482   -10.1799    17.5864 C       6      r6     0.0007
  11130 C            4.8891   -10.6240    20.0001 C       6      r6     0.0008
  11131 C            5.5286    -9.3409    20.2382 C       7      r7    -0.0035
  11132 C            5.5910    -9.1055    17.7687 C       6      r6     0.0038
  11133 C            5.8356    -8.6269    19.0448 C       6      r6     0.0073
  11134 C            6.0151    -8.5154    16.5057 C       5      r5     0.0008
  11135 C            6.4174    -7.3352    19.1813 C       7      r7     0.0027
  11136 C            6.9472    -7.4604    16.6230 C       5      r5     0.0003
  11137 C            7.3012    -6.9632    18.0602 C       7      r7     0.0008
  11138 C            8.4318   -10.8280    18.3947 C       6      r6    -0.0016
  11139 C            8.9770   -10.0955    17.3085 C       6      r6     0.0001
  11140 C            9.0385   -10.5886    19.8021 C       5      r5    -0.0009
  11141 C            9.4122    -8.6940    17.6912 C       7      r7     0.0011
  11142 C            9.1260   -10.6567    15.9713 C       6      r6     0.0004
  11143 C            9.6101    -7.7135    16.6538 C       7      r7    -0.0015
  11144 C           10.0506    -8.3721    18.9584 C       7      r7     0.0007
  11145 C           10.0448    -7.1293    19.7077 C       7      r7    -0.0007
  11146 C           10.1849    -9.6672    19.7128 C       7      r7     0.0009
  11147 C           11.5112    -9.9541    20.1942 C       7      r7     0.0012
  11148 C           13.3740    -8.1193    19.7507 C       7      r7    -0.0004
  11149 C           14.2986    -7.4868    17.1359 C       5      r5    -0.0003
  11150 C           14.6582    -8.7657    19.3281 C       7      r7     0.0011
  11151 C           14.8179    -8.6664    17.8614 C       5      r5     0.0002
  11152 C           15.0252    -9.6176    16.7440 C       5      r5     0.0014
  11153 C           15.7827    -8.6080    20.1915 C       7      r7     0.0007
  11154 C           16.4093    -9.8842    16.3256 C       7      r7    -0.0002
  11155 C           17.0574    -9.4635    20.1385 C       6      r6    -0.0001
  11156 C           17.5367    -9.8308    18.8293 C       7      r7    -0.0006
  11157 C           17.6499    -9.0427    16.4913 C       7      r7    -0.0011
  11158 C           17.7177    -8.6711    17.9201 C       7      r7    -0.0005
  11159 C           17.8080   -11.3791    18.6170 C       7      r7    -0.0008
  11160 C           18.6269    -7.6871    18.5094 C       7      r7    -0.0009
  11161 C           20.0745    -9.6428    16.3901 C       7      r7     0.0042
  11162 C           20.0377    -8.2363    18.5279 C       7      r7     0.0001
  11163 C           20.2717   -11.0634    19.6113 C       5      r5     0.0003
  11164 C           20.7078    -8.9042    17.4598 C       7      r7     0.0034
  11165 C           21.0547    -8.5943    19.5865 C       7      r7     0.0011
  11166 C           21.2723    -9.9711    19.9052 C       7      r7     0.0001
  11167 C           22.1233    -9.3740    17.4635 C       5      r5    -0.0490
  11168 C           22.2482   -10.4007    16.5160 C       5      r5     0.2496
  11169 C           22.4260    -8.0301    19.3455 C       7      r7    -0.0048
  11170 C           23.0945    -8.9790    18.4434 C       7      r7     0.0234
  11171 C           23.8647   -10.5356    20.1304 C       7      r7    -0.0039
  11172 C           24.1579   -10.0009    18.8217 C       7      r7     0.0206
  11173 C          -25.1940    -6.2293    17.3535 C       6      r6     0.0019
  11174 C          -24.9852    -5.6768    20.0951 C       7      r7    -0.0002
  11175 C          -24.3395    -6.0781    16.2149 C       7      r7    -0.0007
  11176 C          -23.3893    -3.4686    16.6511 C       5      r5    -0.0001
  11177 C          -23.4427    -4.8621    16.1154 C       7      r7     0.0035
  11178 C          -22.9406    -3.1974    18.0555 C       7      r7    -0.0014
  11179 C          -22.3190    -4.3816    18.6373 C       7      r7    -0.0002
  11180 C          -22.1560    -5.5454    16.4000 C       7      r7    -0.0019
  11181 C          -22.0420    -4.3724    20.0582 C       7      r7     0.0004
  11182 C          -21.5470    -5.2286    17.7170 C       7      r7    -0.0017
  11183 C          -20.1679    -4.7723    17.3957 C       7      r7    -0.0005
  11184 C          -19.9782    -4.0633    16.0842 C       6      r6     0.0002
  11185 C          -19.6962    -4.6828    20.0867 C       7      r7     0.0014
  11186 C          -19.3845    -4.6946    18.6130 C       7      r7    -0.0009
  11187 C          -18.0498    -4.1986    18.2995 C       5      r5    -0.0010
  11188 C          -17.8600    -6.5316    16.1624 C       0      r0    -0.0006
  11189 C          -17.4244    -3.0382    19.1437 C       5      r5     0.0000
  11190 C          -17.0115    -6.2698    17.3561 C       0      r0     0.0006
  11191 C          -16.9374    -4.8422    17.7228 C       5      r5    -0.0002
  11192 C          -16.0287    -2.8153    18.3926 C       5      r5     0.0001
  11193 C          -15.7727    -3.8846    17.4973 C       5      r5    -0.0007
  11194 C          -14.8619    -4.0588    16.3393 C       6      r6    -0.0004
  11195 C          -11.6354    -2.5532    18.3321 C       6      r6     0.0010
  11196 C          -11.2349    -4.6319    19.7112 C       6      r6    -0.0010
  11197 C          -10.7176    -3.5098    18.9076 C       6      r6     0.0009
  11198 C          -10.1327    -5.5151    19.8009 C       0      r0    -0.0005
  11199 C           -9.4308    -2.9894    19.4822 C       6      r6    -0.0003
  11200 C           -9.0520    -6.2976    19.9481 C       0      r0    -0.0004
  11201 C           -8.4350    -2.4097    18.6009 C       6      r6     0.0003
  11202 C           -8.2047    -6.7918    16.1242 C       7      r7    -0.0012
  11203 C           -7.5122    -3.2052    17.8955 C       0      r0     0.0003
  11204 C           -6.6271    -3.8424    17.2808 C       0      r0    -0.0000
  11205 C           -5.6004    -4.5391    16.5689 C       0      r0     0.0011
  11206 C           -4.9768    -6.2337    19.7054 C       6      r6    -0.0023
  11207 C           -4.6768    -5.0455    20.5825 C       6      r6    -0.0025
  11208 C           -4.7941    -6.2750    18.2532 C       6      r6    -0.0013
  11209 C           -4.4773    -5.0379    17.4790 C       0      r0    -0.0006
  11210 C           -3.0954    -4.6924    17.5844 C       0      r0    -0.0017
  11211 C           -2.4332    -3.4788    17.0738 C       7      r7     0.0008
  11212 C           -2.2013    -6.0328    19.5218 C       6      r6     0.0085
  11213 C           -2.1354    -5.7017    18.1157 C       6      r6     0.0036
  11214 C           -1.6355    -6.7184    17.1666 C       6      r6     0.0127
  11215 C           -1.3582    -3.2915    16.1973 C       7      r7     0.0013
  11216 C           -0.1889    -2.9129    18.5530 C       6      r6    -0.0024
  11217 C           -0.0420    -4.0584    19.4196 C       6      r6     0.0023
  11218 C            0.7798    -2.8232    17.4737 C       6      r6    -0.0006
  11219 C            1.3671    -4.5009    19.5009 C       6      r6     0.0319
  11220 C            1.5664    -4.0325    17.0142 C       6      r6    -0.0031
  11221 C            1.9960    -4.7938    18.1792 C       6      r6     0.0273
  11222 C            3.4116    -5.1619    18.3317 C       5      r5     0.0270
  11223 C            3.5743    -3.6147    20.3776 C       6      r6     0.0032
  11224 C            3.4486    -6.6047    16.2397 C       0      r0    -0.0033
  11225 C            4.0802    -2.2104    20.3176 C       0      r0     0.0002
  11226 C            4.1564    -5.6868    17.2645 C       5      r5     0.0063
  11227 C            4.1581    -4.4158    19.3247 C       5      r5     0.0022
  11228 C            5.4988    -5.1339    17.3660 C       5      r5    -0.0003
  11229 C            5.4441    -4.2021    18.6070 C       5      r5    -0.0003
  11230 C            6.0099    -6.5690    20.3752 C       7      r7     0.0044
  11231 C            6.6384    -3.4487    18.8445 C       5      r5    -0.0009
  11232 C            6.6521    -4.7509    16.6247 C       5      r5    -0.0016
  11233 C            7.1236    -2.8450    20.1168 C       0      r0    -0.0015
  11234 C            7.2638    -3.6770    17.4727 C       5      r5    -0.0019
  11235 C            7.8076    -2.5877    16.7378 C       7      r7    -0.0025
  11236 C            8.1624    -5.3012    20.4514 C       7      r7    -0.0015
  11237 C            8.4239    -6.1580    18.1016 C       7      r7    -0.0015
  11238 C            9.1983    -5.8348    19.3986 C       7      r7    -0.0008
  11239 C            9.2897    -6.3016    16.8897 C       7      r7    -0.0019
  11240 C           10.3446    -4.6153    19.3805 C       7      r7    -0.0001
  11241 C           10.5812    -4.0586    16.7440 C       7      r7     0.0021
  11242 C           10.6064    -3.8502    18.2728 C       7      r7    -0.0034
  11243 C           11.4605    -2.6765    18.6092 C       6      r6     0.0037
  11244 C           12.0280    -4.4240    16.5270 C       5      r5     0.0068
  11245 C           12.9088    -2.8481    18.3963 C       7      r7     0.0169
  11246 C           13.0800    -3.9624    17.4709 C       7      r7     0.0056
  11247 C           13.3629    -6.7189    19.2737 C       7      r7    -0.0014
  11248 C           13.6990    -5.9920    20.4851 C       7      r7    -0.0005
  11249 C           13.8969    -6.3207    17.9884 C       6      r6    -0.0007
  11250 C           14.2048    -4.8981    17.6827 C       7      r7    -0.0024
  11251 C           15.3691    -4.3401    16.9422 C       7      r7    -0.0025
  11252 C           15.3067    -2.8781    16.7413 C       7      r7     0.0098
  11253 C           17.9157    -3.6768    15.9456 C       5      r5    -0.0003
  11254 C           18.3020    -3.8103    17.3727 C       5      r5    -0.0007
  11255 C           18.4797    -4.1282    20.2035 C       7      r7    -0.0001
  11256 C           18.4100    -6.2305    18.7098 C       0      r0    -0.0012
  11257 C           18.4562    -5.5941    20.0468 C       7      r7    -0.0005
  11258 C           18.5597    -5.2706    17.5448 C       0      r0    -0.0014
  11259 C           19.1903    -2.6257    17.5615 C       7      r7     0.0005
  11260 C           19.6980    -3.5721    19.6215 C       7      r7     0.0010
  11261 C           19.7970    -2.3587    18.8088 C       7      r7     0.0001
  11262 C           19.8493    -5.6223    16.9564 C       6      r6     0.0006
  11263 C           20.6687    -4.6656    19.3242 C       7      r7     0.0003
  11264 C           20.7660    -5.4878    18.0845 C       6      r6    -0.0001
  11265 C           22.1199    -6.1059    17.8780 C       6      r6     0.0029
  11266 C           22.5857    -5.2090    16.7524 C       7      r7    -0.0007
  11267 C           22.6616    -5.7744    20.2912 C       6      r6    -0.0008
  11268 C           22.7666    -6.6213    19.0603 C       6      r6     0.0010
  11269 C           23.5589    -2.8877    16.7552 C       7      r7    -0.0018
  11270 C           23.7293    -4.3353    16.9631 C       7      r7    -0.0016
  11271 C           24.6719    -3.2768    19.6925 C       7      r7     0.0003
  11272 C           24.8071    -4.8879    17.8141 C       7      r7    -0.0022
  11273 C           25.0674    -4.5859    19.2089 C       7      r7    -0.0012
  11274 C          -24.6417     1.5715    19.2351 C       7      r7    -0.0009
  11275 C          -23.7240     1.2937    20.3057 C       5      r5     0.0002
  11276 C          -23.1737    -2.1644    16.0289 C       5      r5     0.0061
  11277 C          -22.4870     2.0335    20.0068 C       5      r5     0.0003
  11278 C          -22.5335    -1.2935    17.0163 C       5      r5    -0.0033
  11279 C          -22.3343    -1.8783    18.3204 C       7      r7    -0.0008
  11280 C          -21.8475    -1.2640    19.6174 C       7      r7    -0.0007
  11281 C          -21.7162    -0.1575    16.5260 C       6      r6    -0.0002
  11282 C          -20.5648    -0.6287    19.8766 C       0      r0     0.0006
  11283 C          -20.3456    -0.2256    16.8643 C       6      r6    -0.0021
  11284 C          -20.2507     0.6630    20.3857 C       0      r0     0.0009
  11285 C          -19.6086     1.0592    16.9571 C       6      r6    -0.0021
  11286 C          -19.4749    -1.7220    19.9851 C       6      r6     0.0010
  11287 C          -19.5609    -1.4957    16.9210 C       6      r6    -0.0024
  11288 C          -18.5424    -2.0119    19.0228 C       6      r6    -0.0004
  11289 C          -18.2751     1.1853    17.5979 C       6      r6     0.0012
  11290 C          -18.3864    -1.2850    17.7258 C       6      r6    -0.0011
  11291 C          -17.6803    -0.0396    18.0975 C       6      r6     0.0007
  11292 C          -17.5495     1.2324    20.2924 C       0      r0     0.0004
  11293 C          -16.9185     0.2070    19.3709 C       0      r0     0.0014
  11294 C          -15.7433    -0.5592    19.6759 C       5      r5     0.0004
  11295 C          -15.2778    -1.6522    18.7045 C       5      r5     0.0002
  11296 C          -14.5463    -0.0443    20.3640 C       5      r5     0.0002
  11297 C          -13.8543    -1.7405    18.6509 C       5      r5     0.0005
  11298 C          -13.4821    -0.7772    19.6793 C       5      r5     0.0012
  11299 C          -13.2126    -2.1062    16.2822 C       0      r0    -0.0010
  11300 C          -12.9688    -2.4522    17.6847 C       6      r6    -0.0011
  11301 C          -12.0807    -0.4377    19.7930 C       6      r6     0.0011
  11302 C          -11.2629    -1.1213    18.7178 C       6      r6     0.0011
  11303 C          -10.8093     2.1263    16.1818 C       7      r7     0.0008
  11304 C          -10.2904    -0.5731    18.0085 C       0      r0     0.0007
  11305 C           -9.2557    -0.0009    17.3123 C       6      r6    -0.0002
  11306 C           -7.9867     0.1562    18.1492 C       6      r6    -0.0002
  11307 C           -7.8732    -1.0451    19.0167 C       6      r6    -0.0002
  11308 C           -7.6440    -1.0921    20.3943 C       6      r6     0.0000
  11309 C           -6.9798     0.8639    17.3450 C       7      r7    -0.0014
  11310 C           -6.6523     0.2810    16.0237 C       7      r7    -0.0005
  11311 C           -5.9766     1.9129    17.6372 C       7      r7    -0.0011
  11312 C           -4.7843     1.4654    18.3617 C       7      r7     0.0003
  11313 C           -4.3950    -0.4620    16.7308 C       7      r7    -0.0014
  11314 C           -4.2240     0.1807    18.0343 C       7      r7     0.0014
  11315 C           -4.1595     2.3436    19.2819 C       7      r7     0.0022
  11316 C           -3.4284    -1.4339    16.3707 C       7      r7    -0.0012
  11317 C           -3.0456    -0.3001    18.7192 C       6      r6    -0.0008
  11318 C           -2.9411     1.8978    19.9166 C       7      r7     0.0105
  11319 C           -2.9201    -2.2091    17.3732 C       7      r7    -0.0011
  11320 C           -2.4670     0.5482    19.6994 C       5      r5     0.0014
  11321 C           -2.3186    -1.5127    18.4630 C       6      r6    -0.0018
  11322 C           -1.1979     0.3315    20.3921 C       5      r5     0.0033
  11323 C           -1.0456    -1.7397    19.0396 C       6      r6    -0.0020
  11324 C           -0.4604    -0.8908    20.0158 C       6      r6    -0.0028
  11325 C            0.5380    -1.6871    16.5724 C       7      r7    -0.0020
  11326 C            1.6595    -0.7062    16.2053 C       7      r7    -0.0007
  11327 C            1.7387     2.0692    19.9846 C       5      r5    -0.0008
  11328 C            2.0670    -1.1625    19.8520 C       0      r0    -0.0037
  11329 C            2.7361    -0.7548    17.0801 C       0      r0    -0.0019
  11330 C            2.7592     1.1835    20.5627 C       5      r5    -0.0017
  11331 C            3.3305    -1.2969    19.3682 C       0      r0    -0.0004
  11332 C            3.7146    -0.7839    17.9150 C       0      r0    -0.0008
  11333 C            4.0491     1.3254    19.8799 C       5      r5    -0.0005
  11334 C            5.1471    -0.3841    17.6395 C       5      r5    -0.0022
  11335 C            5.3439     0.5227    19.8885 C       0      r0    -0.0001
  11336 C            5.9969    -0.8816    16.5256 C       7      r7    -0.0021
  11337 C            6.0294     0.1290    18.6210 C       5      r5    -0.0017
  11338 C            7.2771    -1.2732    17.1318 C       7      r7    -0.0014
  11339 C            7.3789    -0.5018    18.3866 C       5      r5    -0.0010
  11340 C            8.7266     0.0020    18.6514 C       6      r6    -0.0004
  11341 C            9.2816     0.4996    17.3365 C       6      r6     0.0031
  11342 C            9.5961     1.8464    17.0720 C       6      r6     0.0094
  11343 C            9.6552    -0.3986    16.2254 C       7      r7     0.0124
  11344 C            9.8773    -0.8003    19.1684 C       6      r6    -0.0017
  11345 C           10.3191    -1.5504    16.7478 C       7      r7     0.0303
  11346 C           10.6596    -1.5118    18.2211 C       6      r6     0.0197
  11347 O           13.0702    -0.1704    16.4352 O       3      r3    -0.4443
  11348 C           13.4432     0.7917    17.5448 C       3      r3     0.1542
  11349 C           13.6189     0.6105    18.9951 C       6      r6    -0.0280
  11350 C           13.7495     1.7201    19.9529 C       6      r6     0.0026
  11351 C           14.0856    -0.7229    19.4804 C       6      r6     0.0141
  11352 C           14.0568    -1.9675    18.6994 C       7      r7     0.0171
  11353 C           14.2274     0.8323    16.4242 C       3      r3     0.1563
  11354 C           15.2939    -2.1140    17.9871 C       7      r7     0.0070
  11355 C           15.5423     1.4520    16.4438 C       6      r6    -0.0480
  11356 C           16.5067    -1.2792    18.0380 C       6      r6    -0.0011
  11357 C           16.7951     0.7452    16.8642 C       6      r6     0.0119
  11358 C           16.7814    -0.6969    16.6886 C       6      r6     0.0016
  11359 C           17.2856    -1.0727    19.2279 C       6      r6    -0.0013
  11360 C           17.5312     1.1969    18.0290 C       7      r7    -0.0024
  11361 C           17.7143     1.3662    20.3609 C       7      r7    -0.0012
  11362 C           17.7170     0.3741    19.2367 C       7      r7     0.0008
  11363 C           19.4612    -1.9439    16.2590 C       7      r7    -0.0009
  11364 C           19.9489    -0.5822    16.1971 C       7      r7    -0.0023
  11365 C           20.8097    -1.2144    19.1779 C       7      r7     0.0009
  11366 C           20.7301     0.3232    17.1224 C       7      r7    -0.0015
  11367 C           20.7348     1.7119    16.7735 C       7      r7    -0.0018
  11368 C           21.2033     0.0921    18.4573 C       7      r7     0.0008
  11369 C           22.1952     1.0365    18.9578 C       6      r6     0.0014
  11370 C           23.3574     0.3612    19.7965 C       7      r7    -0.0001
  11371 C           23.6604    -1.1371    19.9651 C       7      r7     0.0005
  11372 C           23.9906    -0.6592    17.0030 C       7      r7    -0.0010
  11373 C           24.0833    -1.9235    17.6490 C       7      r7    -0.0012
  11374 C           24.2508    -2.0554    19.0870 C       7      r7    -0.0017
  11375 C           24.4088     1.6994    16.5252 C       7      r7    -0.0018
  11376 C           24.5231     0.6175    17.5175 C       7      r7    -0.0019
  11377 C           24.6190     0.9164    18.9167 C       7      r7    -0.0012
  11378 C          -24.7498     6.3441    18.2887 C       7      r7     0.0007
  11379 C          -24.0349     3.0052    16.9974 C       7      r7    -0.0014
  11380 C          -23.8813     2.6055    18.3098 C       7      r7    -0.0005
  11381 C          -23.3123     6.6839    18.1534 C       7      r7     0.0015
  11382 C          -22.8005     6.0529    16.9069 C       7      r7     0.0013
  11383 C          -22.6555     3.0840    19.0047 C       5      r5    -0.0003
  11384 C          -22.5862     3.5054    16.3575 C       7      r7    -0.0008
  11385 C          -22.2672     4.7734    17.2546 C       6      r6     0.0003
  11386 C          -22.0268     4.3618    18.5988 C       6      r6     0.0013
  11387 C          -21.6766     5.5418    19.5760 C       7      r7     0.0005
  11388 C          -21.6652     2.2909    16.3931 C       6      r6    -0.0020
  11389 C          -20.2230     2.2740    16.5548 C       6      r6    -0.0012
  11390 C          -20.1744     6.0113    19.4381 C       7      r7     0.0006
  11391 C          -19.4803     3.5702    16.6053 C       5      r5     0.0001
  11392 C          -19.0595     5.2510    19.9600 C       6      r6     0.0006
  11393 C          -18.4408     3.6458    17.6334 C       5      r5     0.0018
  11394 C          -18.2426     5.4713    16.0787 C       5      r5     0.0023
  11395 C          -17.8722     5.0535    17.4218 C       5      r5    -0.0002
  11396 C          -17.7249     2.5097    17.9874 C       6      r6     0.0023
  11397 C          -17.6381     5.6318    19.7606 C       6      r6    -0.0006
  11398 C          -17.2784     5.9170    18.3497 C       6      r6    -0.0020
  11399 C          -16.3761     2.8041    18.6012 C       6      r6    -0.0004
  11400 C          -16.0252     3.0133    19.9951 C       6      r6    -0.0006
  11401 C          -15.3699     3.1599    17.6482 C       5      r5    -0.0011
  11402 C          -15.3078     2.7564    16.2586 C       7      r7     0.0010
  11403 C          -14.8036     3.7626    20.3010 C       5      r5    -0.0009
  11404 C          -13.9510     3.4156    18.0471 C       5      r5    -0.0019
  11405 C          -13.8871     2.2306    16.1605 C       7      r7    -0.0001
  11406 C          -13.6909     3.9075    19.3890 C       5      r5    -0.0011
  11407 C          -12.9722     2.9048    17.0875 C       7      r7    -0.0009
  11408 C          -12.8251     4.9831    19.9086 C       5      r5    -0.0012
  11409 C          -12.3915     6.1983    17.6900 C       7      r7     0.0115
  11410 C          -12.0640     5.9438    19.1216 C       7      r7    -0.0024
  11411 C          -11.5143     3.0833    16.9887 C       7      r7    -0.0003
  11412 C          -11.4249     5.6267    16.7276 C       7      r7     0.0269
  11413 C          -10.6936     4.3391    17.0112 C       5      r5    -0.0024
  11414 C           -9.3263     4.0284    16.6182 C       5      r5     0.0046
  11415 C           -9.0895     6.1184    19.7724 C       6      r6    -0.0067
  11416 C           -8.0660     5.4683    18.9050 C       6      r6     0.0001
  11417 C           -7.7292     6.3490    17.7569 C       7      r7     0.0055
  11418 C           -7.6757     5.9278    16.3561 C       7      r7     0.0119
  11419 C           -7.1752     4.5868    19.5816 C       6      r6    -0.0023
  11420 C           -5.9405     4.2060    18.9549 C       7      r7    -0.0011
  11421 C           -5.8866     3.0806    16.7618 C       7      r7    -0.0032
  11422 C           -5.5883     4.2618    17.5403 C       7      r7    -0.0031
  11423 C           -4.7358     3.6098    19.7039 C       7      r7     0.0005
  11424 C           -4.2301     4.6581    17.1057 C       5      r5    -0.0034
  11425 C           -3.9304     4.4167    20.5954 C       7      r7     0.0068
  11426 C           -3.4460     6.4253    18.7645 C       6      r6    -0.0032
  11427 C           -3.2419     5.4437    17.6909 C       6      r6    -0.0016
  11428 C           -2.5628     4.9454    20.3279 C       7      r7     0.0016
  11429 C           -2.2631     6.1856    19.6327 C       7      r7    -0.0014
  11430 C           -2.0460     5.7583    16.9995 C       6      r6     0.0007
  11431 C           -1.5614     3.9285    20.6136 C       7      r7    -0.0015
  11432 C           -1.0866     6.6657    17.6647 C       6      r6     0.0025
  11433 C           -0.9216     6.4845    19.1032 C       7      r7    -0.0003
  11434 C           -0.1760     3.7034    20.1701 C       7      r7    -0.0012
  11435 C            0.3132     2.3514    20.3102 C       5      r5    -0.0027
  11436 C            0.4642     6.1550    19.6861 C       7      r7    -0.0008
  11437 C            0.6601     4.6478    19.5219 C       7      r7     0.0001
  11438 C            1.7204     6.6235    18.8178 C       5      r5     0.0007
  11439 C            1.8563     4.2480    18.8780 C       7      r7     0.0011
  11440 C            2.4869     2.9415    19.1042 C       7      r7     0.0005
  11441 C            2.4237     5.5181    18.2638 C       7      r7     0.0050
  11442 C            3.6915     5.4812    17.5580 C       7      r7     0.0079
  11443 C            3.9050     2.5660    19.1706 C       7      r7     0.0008
  11444 C            4.3397     6.7965    17.1977 C       5      r5     0.0007
  11445 C            4.8300     4.6800    17.9609 C       7      r7     0.0002
  11446 C            4.9324     3.5427    18.8995 C       7      r7     0.0000
  11447 C            5.8562     3.8840    19.9923 C       5      r5    -0.0007
  11448 C            5.8722     5.6301    18.3904 C       5      r5    -0.0006
  11449 C            6.3071     5.2112    19.6583 C       5      r5    -0.0003
  11450 C            8.6028     6.2432    20.1983 C       7      r7    -0.0006
  11451 C            8.8714     6.0152    15.9781 C       6      r6    -0.0003
  11452 C            9.4272     5.0660    20.0985 C       7      r7    -0.0006
  11453 C            9.2372     4.7184    16.5757 C       6      r6    -0.0007
  11454 C           10.1063     4.2838    17.7393 C       6      r6     0.0012
  11455 C           10.1798     2.8675    18.0329 C       6      r6     0.0013
  11456 C           10.4526     5.1112    18.9298 C       6      r6     0.0006
  11457 C           10.6637     2.3596    19.2497 C       0      r0     0.0038
  11458 C           11.0295     2.1286    20.4779 C       0      r0    -0.0001
  11459 C           11.2349     6.2812    18.6126 C       6      r6     0.0005
  11460 C           12.8157     6.3930    18.2389 C       7      r7     0.0001
  11461 C           13.4064     5.0091    18.2166 C       5      r5    -0.0002
  11462 C           13.5072     6.1579    15.9934 C       7      r7     0.0011
  11463 C           13.6055     4.2684    19.4947 C       6      r6     0.0005
  11464 C           13.7440     4.8926    16.8034 C       5      r5     0.0007
  11465 C           14.2963     3.7358    16.0663 C       6      r6    -0.0026
  11466 C           14.4183     3.0521    19.8242 C       0      r0    -0.0047
  11467 C           15.4414     2.8731    16.5983 C       6      r6     0.0034
  11468 C           16.4943     5.2129    19.1776 C       5      r5     0.0003
  11469 C           16.4504     4.7859    17.8724 C       5      r5    -0.0006
  11470 C           16.5356     3.3578    17.4896 C       6      r6     0.0001
  11471 C           16.6197     5.7875    16.9169 C       5      r5    -0.0006
  11472 C           16.7698     6.5993    19.0207 C       7      r7     0.0001
  11473 C           17.7666     2.6405    17.9841 C       7      r7     0.0003
  11474 C           18.9364     3.2542    18.5992 C       7      r7    -0.0001
  11475 C           19.3739     3.1250    19.9373 C       7      r7     0.0008
  11476 C           19.7645     4.7670    16.6511 C       7      r7    -0.0007
  11477 C           20.1648     3.9710    17.9059 C       7      r7    -0.0001
  11478 C           20.1314     6.1342    16.4798 C       7      r7     0.0010
  11479 C           20.3780     4.2691    20.2867 C       7      r7     0.0014
  11480 C           20.5863     4.8721    19.0730 C       5      r5     0.0020
  11481 C           21.2713     2.7910    17.5900 C       7      r7    -0.0008
  11482 C           21.0891     6.2869    18.8177 C       6      r6     0.0008
  11483 C           21.2887     6.5149    17.3154 C       7      r7    -0.0016
  11484 C           22.2232     2.4114    18.5812 C       6      r6     0.0007
  11485 C           22.6426     6.3067    16.7510 C       7      r7    -0.0012
  11486 C           23.2912     3.5219    19.1766 C       0      r0     0.0001
  11487 C           23.6709     5.4741    17.4491 C       5      r5    -0.0019
  11488 C           23.8234     3.1933    20.2995 C       0      r0     0.0017
  11489 C           23.9072     4.8077    18.7296 C       5      r5     0.0003
  11490 C           24.8377     6.2411    17.1236 C       7      r7    -0.0008
  11491 C           25.1609     5.4045    19.2453 C       5      r5     0.0016
  11492 C           25.2137     2.8677    16.2567 C       7      r7    -0.0028
  11493 C           25.2337     9.5071    17.2230 C       5      r5     0.0005
  11494 C          -24.3354     9.4053    19.5306 C       7      r7    -0.0005
  11495 C          -24.1303     9.5688    18.1541 C       7      r7     0.0005
  11496 C          -22.9855     9.3477    20.3677 C       7      r7     0.0003
  11497 C          -23.0265    10.4373    17.3486 C       7      r7    -0.0001
  11498 C          -22.5645     6.8445    19.4280 C       7      r7    -0.0000
  11499 C          -22.4700     7.8083    20.4612 C       7      r7    -0.0004
  11500 C          -21.9726    10.5394    20.2314 C       7      r7     0.0009
  11501 C          -21.5168    10.5496    17.8269 C       7      r7    -0.0004
  11502 C          -21.0746    10.8441    19.1852 C       7      r7     0.0004
  11503 C          -20.7023    10.8466    16.7373 C       7      r7    -0.0001
  11504 C          -19.9821     7.4182    19.8005 C       7      r7     0.0001
  11505 C          -19.2274    11.1762    16.7879 C       7      r7     0.0009
  11506 C          -18.8272     8.2689    19.4092 C       5      r5     0.0003
  11507 C          -17.6377     8.3241    18.5926 C       5      r5    -0.0004
  11508 C          -17.4272    10.0460    20.2065 C       7      r7     0.0003
  11509 C          -17.1212     7.2485    17.7816 C       6      r6    -0.0008
  11510 C          -16.8816     7.4239    16.3482 C       7      r7    -0.0006
  11511 C          -16.8041     9.5198    19.0099 C       7      r7    -0.0005
  11512 C          -15.4787     9.9765    18.6168 C       7      r7    -0.0001
  11513 C          -14.9187     8.7994    16.2426 C       5      r5     0.0019
  11514 C          -14.6576    10.8907    19.4272 C       7      r7    -0.0003
  11515 C          -14.7462     9.1467    17.6200 C       5      r5    -0.0024
  11516 C          -14.0158     7.5570    16.1114 C       7      r7     0.0017
  11517 C          -13.5389     8.4734    18.1871 C       7      r7     0.0128
  11518 C          -13.2395    10.5107    19.6465 C       6      r6    -0.0007
  11519 C          -13.3320     7.2791    17.3694 C       7      r7     0.0190
  11520 C          -12.9372     9.0848    19.3641 C       7      r7     0.0059
  11521 C          -11.9672     8.3165    20.1088 C       7      r7     0.0015
  11522 C          -11.2681     7.1326    19.5413 C       7      r7     0.0138
  11523 C          -11.0392    10.1536    16.6515 C       5      r5     0.2492
  11524 O          -10.8009     8.6624    16.4116 O       6      r6    -0.5002
  11525 C          -10.9267    10.9618    20.3405 C       0      r0    -0.0073
  11526 C          -10.9288    10.8252    17.8980 C       7      r7    -0.0451
  11527 C          -10.4606    10.3099    19.1988 C       7      r7     0.0288
  11528 C           -9.8406     7.2332    19.1875 C       6      r6     0.0182
  11529 C           -9.1055     9.6905    19.1764 C       7      r7    -0.0004
  11530 C           -8.9408     8.3115    18.7681 C       7      r7     0.0335
  11531 C           -8.2540    10.8141    18.9004 C       7      r7     0.0053
  11532 C           -7.7274     7.7821    18.1211 C       7      r7     0.0107
  11533 C           -6.7982    10.6354    18.8950 C       7      r7     0.0003
  11534 C           -6.3658     8.3834    18.0667 C       7      r7     0.0024
  11535 C           -6.0482     9.4144    19.0171 C       7      r7    -0.0010
  11536 C           -5.5214     7.2890    15.9979 C       7      r7    -0.0010
  11537 C           -5.2233     7.7769    17.3646 C       7      r7     0.0003
  11538 C           -4.6428    11.1069    18.2912 C       5      r5    -0.0011
  11539 C           -4.6521     9.8628    19.3323 C       5      r5     0.0005
  11540 C           -3.9861     7.7049    18.2621 C       6      r6    -0.0029
  11541 C           -3.5340     8.9071    19.0442 C       6      r6    -0.0015
  11542 C           -3.4148    11.0369    16.0971 C       6      r6    -0.0017
  11543 C           -2.1333     9.2627    19.3106 C       5      r5    -0.0009
  11544 C           -1.1795     9.7453    18.2449 C       5      r5     0.0001
  11545 C           -1.0653    11.1425    18.4130 C       5      r5    -0.0001
  11546 C           -0.7458    11.2769    16.0663 C       6      r6    -0.0008
  11547 C           -0.4615     9.0544    17.0738 C       6      r6     0.0006
  11548 C           -0.3623     7.6654    16.8103 C       6      r6    -0.0024
  11549 C           -0.1158     9.9545    15.9834 C       6      r6    -0.0001
  11550 C            1.2963     8.8808    19.9024 C       7      r7     0.0000
  11551 C            1.5160    10.3194    19.5843 C       7      r7    -0.0004
  11552 C            1.9280     8.0394    18.8519 C       5      r5     0.0009
  11553 C            2.0996    10.4142    18.2250 C       7      r7    -0.0007
  11554 C            2.4384     9.0669    17.8900 C       5      r5     0.0010
  11555 C            3.9644     8.0491    16.5715 C       5      r5     0.0038
  11556 C            3.9505     9.1666    17.6577 C       5      r5    -0.0011
  11557 C            4.5533    10.3946    16.6694 C       5      r5    -0.0002
  11558 C            4.6945     9.2407    19.0592 C       6      r6    -0.0010
  11559 C            4.8738    10.6762    19.4966 C       6      r6    -0.0005
  11560 C            5.4200     8.0017    19.2178 C       6      r6    -0.0010
  11561 C            5.4510     7.0304    18.1126 C       5      r5    -0.0003
  11562 C            5.8681    10.9065    17.3390 C       6      r6     0.0007
  11563 C            7.2693    10.4960    17.1954 C       6      r6     0.0007
  11564 C            7.5016     9.5423    16.1871 C       0      r0     0.0018
  11565 C            8.2920    10.7328    18.2897 C       7      r7    -0.0007
  11566 C            8.5144     8.6468    19.8264 C       6      r6    -0.0014
  11567 C            9.1039     9.7976    19.0918 C       7      r7    -0.0014
  11568 C            9.1297     7.3567    19.5560 C       6      r6     0.0004
  11569 C           10.5844     9.8886    19.1687 C       7      r7    -0.0016
  11570 C           10.6306     7.4195    19.1815 C       6      r6    -0.0012
  11571 C           11.2517    11.0702    18.7027 C       7      r7     0.0002
  11572 C           11.5018    11.2218    16.1861 C       6      r6    -0.0010
  11573 C           11.3474     8.6296    19.3633 C       7      r7    -0.0007
  11574 C           12.0319    10.7640    17.4904 C       7      r7    -0.0018
  11575 C           13.1156     7.2205    16.8294 C       7      r7     0.0003
  11576 C           12.8174     8.4979    19.4006 C       7      r7    -0.0004
  11577 C           12.9055     8.6294    16.5022 C       7      r7     0.0001
  11578 C           13.0616     9.7187    17.5069 C       7      r7    -0.0009
  11579 C           13.4579     7.1834    19.3890 C       7      r7    -0.0014
  11580 C           13.7907     9.4385    18.7789 C       7      r7     0.0001
  11581 C           14.6063    10.1621    19.6281 C       0      r0    -0.0002
  11582 C           16.8003     6.9310    17.7249 C       7      r7     0.0016
  11583 C           16.9852     8.1855    17.0952 C       7      r7     0.0013
  11584 C           17.4428     7.3713    19.9614 C       7      r7    -0.0000
  11585 C           17.2956     9.5056    17.5102 C       7      r7    -0.0010
  11586 C           17.3087    10.3364    16.3732 C       7      r7    -0.0006
  11587 C           17.6241     9.8144    18.8857 C       7      r7    -0.0013
  11588 C           17.7146     8.7604    19.8467 C       7      r7    -0.0009
  11589 C           17.9702    11.1022    19.4401 C       7      r7    -0.0001
  11590 C           21.3225     7.3887    19.6914 C       0      r0     0.0011
  11591 C           21.5751     8.4464    20.4937 C       7      r7     0.0008
  11592 C           21.9227    10.8510    19.2167 C       6      r6     0.0006
  11593 C           22.1614    11.0490    17.7586 C       6      r6     0.0009
  11594 C           22.2742     9.4903    19.6002 C       7      r7     0.0007
  11595 C           23.1507    10.3045    17.1045 C       5      r5     0.0001
  11596 C           23.6797     9.2070    19.2977 C       7      r7     0.0003
  11597 C           23.9539     9.4152    17.8689 C       5      r5    -0.0003
  11598 C           24.8703     8.9153    20.1042 C       7      r7     0.0000
  11599 C          -24.9820    13.6026    16.1124 C       7      r7     0.0005
  11600 C          -24.5413    13.2447    19.4032 C       7      r7    -0.0003
  11601 C          -23.8162    12.7463    16.4085 C       7      r7     0.0005
  11602 C          -23.7316    11.7933    17.5075 C       7      r7     0.0002
  11603 C          -23.4380    12.5437    18.7235 C       7      r7    -0.0002
  11604 C          -22.5075    13.3364    16.0760 C       7      r7     0.0004
  11605 C          -22.2139    13.3604    18.5033 C       6      r6    -0.0002
  11606 C          -22.0090    14.3186    19.5472 C       6      r6     0.0007
  11607 C          -21.5863    13.5470    17.2017 C       6      r6    -0.0004
  11608 C          -21.0742    15.3518    19.1447 C       5      r5     0.0001
  11609 C          -20.3174    14.2719    16.9340 C       6      r6    -0.0003
  11610 C          -20.0716    15.2364    18.0381 C       5      r5     0.0001
  11611 C          -20.0137    11.8124    19.7307 C       7      r7     0.0011
  11612 C          -18.9406    12.3538    19.0138 C       7      r7     0.0007
  11613 C          -18.3691    13.4357    19.9017 C       7      r7     0.0009
  11614 C          -18.3667    11.9097    17.7034 C       7      r7     0.0004
  11615 C          -17.4187    15.6299    20.1917 C       5      r5     0.0004
  11616 C          -17.3390    14.3600    19.5259 C       7      r7     0.0009
  11617 C          -17.0033    12.2084    17.2128 C       7      r7     0.0005
  11618 C          -16.1577    13.9534    18.9071 C       7      r7     0.0003
  11619 C          -16.0822    13.1159    17.8458 C       7      r7     0.0002
  11620 C          -15.0715    12.0387    20.1941 C       7      r7    -0.0002
  11621 C          -15.0579    14.7953    19.2142 C       7      r7    -0.0001
  11622 C          -14.9100    13.6413    17.3026 C       5      r5    -0.0003
  11623 C          -14.8277    13.6863    15.9889 C       6      r6    -0.0009
  11624 C          -14.3334    14.7154    18.0352 C       7      r7    -0.0008
  11625 C          -12.3494    11.3972    20.3424 C       6      r6     0.0026
  11626 C          -11.8280    15.5379    19.9041 C       7      r7     0.0001
  11627 C          -11.3626    12.3988    16.3981 C       7      r7     0.0025
  11628 C          -11.0438    15.4104    18.6524 C       7      r7    -0.0009
  11629 C          -10.9517    12.3030    17.7825 C       7      r7     0.0041
  11630 C           -9.9986    14.4007    18.9861 C       6      r6    -0.0006
  11631 C           -9.9050    13.0203    18.5427 C       7      r7     0.0008
  11632 C           -9.1345    14.7791    20.1875 C       6      r6    -0.0008
  11633 C           -8.6970    12.2360    18.8442 C       7      r7     0.0007
  11634 C           -7.7589    14.3065    20.0509 C       7      r7    -0.0024
  11635 C           -7.6305    13.1678    19.1442 C       7      r7    -0.0012
  11636 C           -6.8720    13.5410    17.9684 C       7      r7    -0.0006
  11637 C           -6.4108    12.4780    17.0117 C       7      r7     0.0012
  11638 C           -5.9600    15.6780    17.0893 C       7      r7     0.0001
  11639 C           -5.9932    14.6844    18.1554 C       7      r7    -0.0004
  11640 C           -5.9762    11.2884    17.8469 C       7      r7     0.0028
  11641 C           -4.8757    14.4685    19.1034 C       7      r7    -0.0011
  11642 C           -3.6725    13.2300    17.2258 C       7      r7    -0.0002
  11643 C           -3.7210    11.7635    17.3325 C       0      r0     0.0004
  11644 C           -3.6571    13.9587    18.5492 C       7      r7     0.0005
  11645 C           -3.3260    13.9538    15.9932 C       7      r7     0.0005
  11646 C           -2.3520    14.9802    16.2769 C       7      r7     0.0005
  11647 C           -2.3780    13.8508    19.2254 C       7      r7    -0.0002
  11648 C           -2.2165    12.7274    20.1538 C       7      r7    -0.0002
  11649 C           -1.5278    11.4885    19.7755 C       7      r7     0.0012
  11650 C           -1.2447    14.6397    18.6930 C       7      r7     0.0000
  11651 C           -1.2567    15.0974    17.2846 C       7      r7     0.0006
  11652 C           -0.3986    11.9791    17.2976 C       6      r6    -0.0001
  11653 C           -0.1151    15.6383    16.5833 C       5      r5     0.0004
  11654 C            0.0103    14.9165    19.4177 C       5      r5     0.0010
  11655 C            1.1148    14.8490    18.5145 C       5      r5     0.0004
  11656 C            1.0058    12.8591    19.8816 C       7      r7     0.0006
  11657 C            1.0270    12.3469    17.4547 C       7      r7    -0.0008
  11658 C            1.1734    15.6927    17.3187 C       6      r6     0.0010
  11659 C            1.2196    11.5330    20.3944 C       7      r7     0.0001
  11660 C            1.5635    13.3975    18.4791 C       7      r7     0.0004
  11661 C            2.2381    11.5185    17.2603 C       7      r7    -0.0009
  11662 C            2.5980    15.8468    16.8695 C       6      r6     0.0003
  11663 C            3.1063    13.7161    18.2747 C       6      r6     0.0011
  11664 C            3.3569    14.6208    17.1399 C       6      r6     0.0003
  11665 C            3.5370    11.5753    16.5925 C       6      r6    -0.0007
  11666 C            4.0834    14.0855    16.0115 C       6      r6     0.0012
  11667 C            4.0779    13.5759    19.2631 C       0      r0     0.0010
  11668 C            5.3101    14.4136    19.0914 C       0      r0     0.0003
  11669 C            5.6233    15.6617    18.4426 C       6      r6    -0.0001
  11670 C            5.7304    11.5174    18.6454 C       6      r6     0.0008
  11671 C            6.3496    13.6326    19.8415 C       7      r7    -0.0014
  11672 C            6.7939    12.4378    19.1532 C       7      r7     0.0006
  11673 C            6.8888    15.5417    17.7249 C       6      r6     0.0007
  11674 C            7.2331    14.9269    16.3774 C       5      r5     0.0018
  11675 C            8.2108    12.0492    18.9206 C       7      r7    -0.0029
  11676 C            8.3537    13.9753    16.3926 C       5      r5     0.0001
  11677 C            9.3691    12.5500    19.5762 C       7      r7     0.0030
  11678 C            9.4062    15.4322    18.0761 C       6      r6    -0.0013
  11679 C            9.4580    14.2340    17.2753 C       6      r6    -0.0013
  11680 C           10.5308    12.3289    16.2451 C       7      r7    -0.0009
  11681 C           10.7164    12.5035    18.8387 C       7      r7    -0.0010
  11682 C           10.6744    13.3398    17.3115 C       7      r7    -0.0017
  11683 C           11.8470    13.0875    19.6048 C       5      r5     0.0011
  11684 C           11.8597    15.6458    17.8048 C       6      r6    -0.0001
  11685 C           12.0374    14.2272    16.9851 C       7      r7    -0.0014
  11686 C           13.0395    13.3005    19.0229 C       5      r5     0.0024
  11687 C           13.2217    13.5361    17.5795 C       5      r5     0.0004
  11688 C           13.8782    13.9387    19.9518 C       5      r5    -0.0489
  11689 C           14.4350    14.0970    17.0363 C       5      r5     0.0008
  11690 C           15.1755    14.4342    19.4679 C       7      r7     0.0268
  11691 C           15.3396    14.7230    18.0706 C       7      r7    -0.0069
  11692 C           16.5685    15.4725    17.8120 C       7      r7    -0.0014
  11693 C           17.7920    14.5901    18.0553 C       7      r7    -0.0013
  11694 C           17.8932    13.7392    19.2133 C       7      r7    -0.0009
  11695 C           17.7713    11.7082    16.3171 C       7      r7    -0.0002
  11696 C           18.1745    12.3479    18.8214 C       7      r7    -0.0005
  11697 C           18.3913    13.8741    16.9722 C       5      r5     0.0000
  11698 C           18.3438    12.4518    17.3359 C       7      r7    -0.0003
  11699 C           21.0548    14.4637    19.8541 C       5      r5    -0.0001
  11700 C           20.9971    15.7796    19.3050 C       7      r7     0.0005
  11701 C           21.2349    13.2413    19.2308 C       6      r6     0.0002
  11702 C           21.4178    12.0081    20.0041 C       6      r6     0.0000
  11703 C           21.1216    14.5873    17.2323 C       6      r6    -0.0001
  11704 C           21.3456    13.3092    17.7807 C       6      r6     0.0007
  11705 C           21.8657    12.2274    17.0734 C       6      r6     0.0006
  11706 C           23.8633    15.8787    18.1934 C       7      r7     0.0005
  11707 C           24.0596    15.2060    16.9351 C       7      r7    -0.0004
  11708 C           24.1633    14.9169    19.2344 C       7      r7     0.0009
  11709 C           24.6739    13.9475    17.2036 C       7      r7     0.0006
  11710 C           24.8596    13.8390    18.6207 C       7      r7     0.0005
  11711 C           25.2268    18.6933    20.3551 C       7      r7     0.0015
  11712 C          -24.2226    20.2456    16.0182 C       7      r7    -0.0041
  11713 C          -24.3262    19.1429    19.3106 C       6      r6     0.0012
  11714 C          -24.1694    18.5498    17.9956 C       7      r7     0.0004
  11715 C          -23.6016    20.4498    19.3358 C       6      r6    -0.0007
  11716 C          -22.9559    18.6464    17.2018 C       7      r7     0.0005
  11717 C          -22.2115    20.2891    18.9702 C       6      r6     0.0000
  11718 C          -21.8886    19.1382    18.1005 C       7      r7     0.0006
  11719 C          -21.2058    16.6458    19.7339 C       5      r5     0.0013
  11720 C          -20.5913    18.5177    17.8918 C       7      r7     0.0003
  11721 C          -20.3196    17.4925    18.8384 C       7      r7     0.0005
  11722 C          -19.9672    18.4220    16.5188 C       7      r7     0.0001
  11723 C          -19.4032    16.5053    18.2464 C       7      r7     0.0005
  11724 C          -18.6504    18.0510    16.1319 C       7      r7    -0.0002
  11725 C          -17.9748    17.0140    18.3040 C       7      r7     0.0002
  11726 C          -17.6218    17.8920    17.1638 C       7      r7     0.0001
  11727 C          -17.0600    16.9189    19.4197 C       6      r6     0.0009
  11728 C          -16.4569    18.7261    17.3466 C       6      r6    -0.0008
  11729 C          -16.0906    17.9453    19.6656 C       5      r5     0.0006
  11730 C          -15.8929    18.8944    18.6685 C       5      r5    -0.0003
  11731 C          -15.3500    18.6342    16.3798 C       6      r6     0.0005
  11732 C          -14.7424    19.9245    18.7115 C       5      r5    -0.0003
  11733 C          -14.3820    19.4684    20.2875 C       5      r5     0.0006
  11734 C          -14.4152    16.1709    16.2021 C       6      r6     0.0005
  11735 C          -14.1916    19.5436    16.4124 C       7      r7     0.0005
  11736 C          -13.9232    16.0596    17.5454 C       7      r7    -0.0001
  11737 C          -13.4781    19.6886    17.7309 C       7      r7     0.0002
  11738 C          -13.4003    17.0850    18.4691 C       7      r7     0.0001
  11739 C          -12.9504    16.5345    19.7585 C       7      r7     0.0002
  11740 C          -12.9093    19.7574    20.4155 C       6      r6     0.0003
  11741 C          -12.5696    18.3100    18.3500 C       7      r7     0.0004
  11742 C          -12.0605    18.8002    19.7899 C       6      r6    -0.0001
  11743 C          -11.4074    20.1985    16.5372 C       7      r7    -0.0003
  11744 C          -11.4653    17.7514    17.4374 C       7      r7     0.0007
  11745 C          -10.9336    18.8208    16.5113 C       6      r6     0.0004
  11746 C          -10.9206    16.4416    17.5645 C       7      r7    -0.0002
  11747 C          -10.3797    15.9616    16.2730 C       5      r5    -0.0006
  11748 C           -9.4925    18.8415    19.9715 C       7      r7     0.0012
  11749 C           -9.4255    19.9043    18.9346 C       7      r7     0.0002
  11750 C           -8.1523    20.4287    18.3800 C       7      r7     0.0007
  11751 C           -6.8681    19.6402    18.2915 C       7      r7     0.0006
  11752 C           -6.4782    16.5669    20.3418 C       6      r6    -0.0001
  11753 C           -6.4433    18.7958    19.4024 C       7      r7     0.0018
  11754 C           -6.2760    17.3214    19.0844 C       6      r6     0.0001
  11755 C           -5.9316    17.0464    17.7205 C       6      r6     0.0012
  11756 C           -5.7862    18.1321    16.7815 C       6      r6     0.0006
  11757 C           -5.9109    19.5340    17.1528 C       6      r6     0.0003
  11758 C           -3.0060    19.6287    20.3546 C       7      r7    -0.0006
  11759 C           -1.6988    19.4774    19.6927 C       7      r7     0.0010
  11760 C           -1.5328    19.4328    18.2102 C       7      r7    -0.0001
  11761 C           -0.4030    19.5136    20.3961 C       7      r7    -0.0019
  11762 C           -0.1053    19.1622    18.0432 C       5      r5    -0.0000
  11763 C            0.5292    18.7733    16.9369 C       0      r0    -0.0005
  11764 C            0.6574    19.1563    19.4217 C       5      r5    -0.0011
  11765 C            1.2979    18.3061    16.0901 C       0      r0     0.0009
  11766 C            1.8693    18.5593    19.7081 C       0      r0    -0.0024
  11767 C            2.9439    17.8912    20.2646 C       0      r0     0.0006
  11768 C            3.2085    16.7689    15.9689 C       6      r6     0.0005
  11769 C            4.1064    17.4571    19.6854 C       0      r0     0.0009
  11770 C            5.3532    17.0312    19.1059 C       6      r6     0.0001
  11771 C            6.1063    19.7262    17.6032 C       6      r6    -0.0008
  11772 C            6.4668    20.3487    19.9185 C       6      r6     0.0035
  11773 C            6.4562    19.2429    18.9918 C       6      r6     0.0002
  11774 C            6.6249    17.8112    19.2378 C       6      r6     0.0019
  11775 C            6.9567    19.5980    16.4956 C       6      r6     0.0016
  11776 C            8.0359    17.2691    19.1494 C       6      r6    -0.0024
  11777 C            8.1412    16.0534    18.3856 C       6      r6    -0.0024
  11778 C            8.4766    19.4516    16.5960 C       5      r5     0.0009
  11779 C            8.9651    20.3766    20.1931 C       7      r7    -0.0005
  11780 C            9.2773    19.4510    19.0776 C       0      r0    -0.0015
  11781 C            9.3235    17.9596    19.4032 C       6      r6    -0.0020
  11782 C            9.3607    19.8557    17.6664 C       5      r5    -0.0007
  11783 C           10.6563    17.2933    19.3376 C       6      r6    -0.0038
  11784 C           10.6230    16.1494    18.3770 C       6      r6    -0.0007
  11785 C           11.9032    17.4454    20.2395 C       7      r7     0.0013
  11786 C           12.8071    19.8295    19.4340 C       7      r7    -0.0011
  11787 C           12.9925    20.2460    16.8279 C       7      r7     0.0006
  11788 C           13.0110    16.4468    18.1054 C       6      r6    -0.0019
  11789 C           13.2559    17.0091    19.4610 C       7      r7     0.0084
  11790 C           13.6928    17.0289    16.8325 C       6      r6    -0.0010
  11791 C           14.1549    19.7495    18.8326 C       7      r7     0.0009
  11792 C           14.3352    20.2954    17.5181 C       6      r6     0.0003
  11793 C           14.5310    17.4431    19.9752 C       7      r7    -0.0043
  11794 C           15.0665    17.2895    16.5838 C       5      r5     0.0005
  11795 C           15.2081    18.8802    19.6025 C       7      r7    -0.0015
  11796 C           15.7766    20.4689    17.1260 C       6      r6    -0.0002
  11797 C           16.3372    16.6547    16.9963 C       5      r5    -0.0001
  11798 C           16.6487    19.3079    19.1103 C       7      r7    -0.0004
  11799 C           16.9506    20.0353    17.8731 C       6      r6    -0.0008
  11800 C           17.4503    17.3333    16.3100 C       5      r5    -0.0022
  11801 C           17.5446    19.6821    20.1570 C       7      r7     0.0000
  11802 C           18.3184    20.3596    17.3078 C       6      r6    -0.0012
  11803 C           20.3927    20.3366    18.9599 C       5      r5     0.0007
  11804 C           20.5813    17.0591    17.2042 C       7      r7    -0.0022
  11805 C           20.8304    16.7352    20.2849 C       7      r7    -0.0002
  11806 C           20.7948    18.9624    18.7958 C       7      r7    -0.0004
  11807 C           20.9710    18.4378    17.4390 C       7      r7    -0.0004
  11808 C           20.9708    15.8305    17.9005 C       7      r7    -0.0010
  11809 C           21.0567    19.3989    16.2313 C       6      r6     0.0006
  11810 C           21.1789    18.2179    20.2071 C       7      r7    -0.0002
  11811 C           23.6146    20.2433    16.2423 C       6      r6    -0.0027
  11812 C           24.4048    17.7366    19.6971 C       7      r7     0.0015
  11813 C           24.2211    17.3108    18.3808 C       7      r7     0.0005
  11814 C           24.7039    18.1806    16.0379 C       7      r7    -0.0008
  11815 C           25.1581    17.8482    17.3707 C       7      r7    -0.0004
  11816 C          -25.1090    22.6234    19.9166 C       7      r7    -0.0009
  11817 C          -24.1114    21.4041    16.8759 C       6      r6    -0.0032
  11818 C          -24.0494    21.6204    20.1543 C       7      r7     0.0001
  11819 C          -22.7571    21.9790    17.2462 C       6      r6    -0.0052
  11820 C          -22.4739    23.3481    16.8688 C       5      r5     0.0023
  11821 C          -22.3934    24.4149    17.8777 C       5      r5     0.0257
  11822 C          -21.8997    21.6368    18.3379 C       6      r6     0.0010
  11823 C          -21.4979    24.1050    19.0270 C       7      r7     0.0088
  11824 C          -21.3635    22.6805    19.2699 C       7      r7    -0.0012
  11825 C          -17.9008    23.1548    15.9478 C       7      r7     0.0331
  11826 C          -17.9980    24.2740    16.9168 C       7      r7    -0.0560
  11827 C          -17.0569    24.6463    18.0314 C       7      r7     0.0006
  11828 C          -15.7516    21.3466    20.0668 C       5      r5    -0.0007
  11829 C          -15.8786    23.8428    18.3539 C       7      r7     0.0021
  11830 C          -15.4712    22.5064    17.8024 C       7      r7    -0.0009
  11831 C          -15.4734    22.4925    16.3284 C       7      r7     0.0015
  11832 C          -15.3142    21.3425    18.7121 C       5      r5    -0.0011
  11833 C          -14.7860    24.8364    18.2579 C       7      r7    -0.0010
  11834 C          -13.6989    24.4218    16.0961 C       7      r7    -0.0006
  11835 C          -13.7591    24.6217    19.2659 C       6      r6    -0.0011
  11836 C          -13.2832    23.2456    19.5445 C       6      r6    -0.0005
  11837 C          -12.2956    20.6148    17.6236 C       7      r7     0.0002
  11838 C          -11.9794    22.8605    18.9945 C       6      r6     0.0004
  11839 C          -11.6383    21.4560    18.6613 C       6      r6     0.0001
  11840 C          -10.9838    23.8682    19.4652 C       7      r7     0.0005
  11841 C          -10.2701    21.1241    19.1724 C       5      r5    -0.0002
  11842 C           -9.7436    23.4299    20.1092 C       7      r7     0.0014
  11843 C           -9.3278    22.1620    19.5364 C       5      r5     0.0014
  11844 C           -8.1303    24.0652    17.2802 C       0      r0    -0.0001
  11845 C           -8.3495    21.8619    18.4520 C       5      r5     0.0005
  11846 C           -8.2050    22.5924    17.1878 C       0      r0    -0.0002
  11847 C           -7.8229    24.8103    18.5069 C       6      r6    -0.0004
  11848 C           -7.9606    21.8907    15.8663 C       0      r0     0.0004
  11849 C           -6.4073    24.5351    18.8890 C       7      r7     0.0002
  11850 C           -5.5540    23.4551    18.3146 C       7      r7     0.0000
  11851 C           -5.4097    24.5768    16.1169 C       6      r6    -0.0010
  11852 C           -5.4299    21.9026    16.2562 C       7      r7    -0.0007
  11853 C           -5.4817    23.2982    16.8561 C       7      r7    -0.0010
  11854 C           -4.9515    20.6380    16.7661 C       7      r7    -0.0003
  11855 C           -4.8474    22.5646    19.2129 C       7      r7    -0.0003
  11856 C           -4.3994    23.0957    20.5406 C       7      r7    -0.0007
  11857 C           -4.1781    21.3153    18.9943 C       7      r7     0.0007
  11858 C           -3.8085    20.6510    17.7236 C       7      r7    -0.0007
  11859 C           -3.7608    20.9078    20.3331 C       7      r7    -0.0017
  11860 C           -3.6045    24.3412    20.3445 C       7      r7    -0.0012
  11861 C           -2.3595    24.2627    19.5378 C       5      r5     0.0277
  11862 C           -2.3979    20.3554    17.4582 C       7      r7    -0.0006
  11863 C           -2.2579    24.1494    17.1449 C       7      r7    -0.0014
  11864 C           -1.6773    22.9403    17.6621 C       7      r7     0.0004
  11865 C           -1.6944    21.6319    16.9633 C       7      r7    -0.0009
  11866 C           -1.6409    22.9968    19.2023 C       5      r5    -0.0037
  11867 C           -0.6201    22.6845    20.1258 C       0      r0     0.0309
  11868 C            1.3564    23.8715    15.8508 C       7      r7    -0.0051
  11869 C            1.4823    24.0638    18.3474 C       7      r7    -0.0457
  11870 C            1.9045    23.4448    17.0981 C       7      r7     0.0135
  11871 C            1.9735    23.6368    19.5695 C       5      r5    -0.0267
  11872 C            2.7882    22.3711    17.1462 C       6      r6    -0.0027
  11873 C            3.1022    21.6322    15.9701 C       7      r7    -0.0015
  11874 C            3.0602    22.7686    19.5763 C       6      r6     0.0040
  11875 C            3.3678    22.1100    18.4024 C       6      r6     0.0019
  11876 C            4.1544    20.7060    16.1384 C       7      r7    -0.0006
  11877 C            4.4313    21.1252    18.5946 C       6      r6    -0.0035
  11878 C            4.8604    20.5220    17.3926 C       6      r6    -0.0014
  11879 C            5.2707    21.1411    19.7990 C       6      r6    -0.0011
  11880 C            7.5221    23.6121    16.2319 C       7      r7    -0.0003
  11881 C            7.5296    24.4973    17.3120 C       7      r7    -0.0016
  11882 C            8.6772    22.6512    16.1838 C       7      r7     0.0003
  11883 C            8.6741    24.4306    18.2372 C       7      r7     0.0003
  11884 C            9.4202    23.0823    18.4081 C       7      r7    -0.0002
  11885 C            9.4906    22.2709    17.2911 C       7      r7     0.0008
  11886 C           10.2960    20.9274    17.1296 C       7      r7     0.0005
  11887 C           10.5586    22.9096    19.3242 C       7      r7    -0.0012
  11888 C           11.0368    21.5929    19.8157 C       7      r7    -0.0014
  11889 C           11.7363    23.7545    19.3106 C       7      r7     0.0002
  11890 C           11.8224    20.8898    17.4898 C       7      r7     0.0005
  11891 C           11.9736    20.9324    18.8948 C       7      r7    -0.0001
  11892 C           12.8189    23.9559    16.9915 C       5      r5     0.0010
  11893 C           12.9081    23.6039    18.3780 C       5      r5     0.0006
  11894 C           14.1470    23.8832    16.4658 C       5      r5    -0.0002
  11895 C           14.2872    23.4571    18.6831 C       5      r5     0.0009
  11896 C           14.5342    22.9723    20.0900 C       7      r7     0.0003
  11897 C           15.1161    23.6162    17.4742 C       5      r5    -0.0000
  11898 C           15.4812    21.8286    20.2563 C       7      r7     0.0003
  11899 C           16.5264    23.7901    17.1749 C       5      r5    -0.0008
  11900 C           16.8827    22.2184    20.0998 C       7      r7    -0.0003
  11901 C           17.0653    23.6559    20.5148 C       7      r7     0.0008
  11902 C           17.1429    24.7328    19.5226 C       0      r0    -0.0000
  11903 C           17.1605    23.6329    15.8708 C       7      r7     0.0004
  11904 C           17.4873    24.3328    18.1106 C       5      r5    -0.0002
  11905 C           17.9184    21.1612    20.3319 C       7      r7    -0.0008
  11906 C           18.5650    24.0428    16.0443 C       7      r7     0.0003
  11907 C           18.7501    24.5414    17.4512 C       7      r7    -0.0003
  11908 C           19.4221    21.1117    17.9265 C       0      r0     0.0011
  11909 C           20.2773    20.7338    20.3458 C       7      r7     0.0006
  11910 C           20.3254    21.9673    17.4319 C       0      r0     0.0005
  11911 C           20.4734    24.5864    20.2951 C       6      r6     0.0004
  11912 C           21.3445    22.6708    17.0338 C       0      r0     0.0006
  11913 C           22.7455    22.4023    17.5211 C       5      r5    -0.0010
  11914 C           22.8969    24.0540    19.6509 C       7      r7    -0.0019
  11915 C           23.3692    23.1332    18.6198 C       5      r5    -0.0024
  11916 C           23.7490    21.4223    17.0169 C       5      r5    -0.0029
  11917 C           24.0579    24.6909    20.3715 C       7      r7    -0.0004
  11918 C           24.8430    22.8004    18.5958 C       5      r5    -0.0043
  11919 C           25.0923    21.9147    17.4409 C       5      r5    -0.0039
  11920 C          -24.0383   -24.0212    22.3994 C       7      r7    -0.0010
  11921 C          -23.5488   -24.2806    21.0140 C       7      r7     0.0012
  11922 C          -22.8421   -24.0804    23.2008 C       5      r5    -0.0006
  11923 C          -22.2520   -23.3920    24.3203 C       6      r6    -0.0001
  11924 C          -22.2053   -24.6982    21.1393 C       5      r5    -0.0016
  11925 C          -20.9994   -22.7444    24.1746 C       7      r7    -0.0005
  11926 C          -20.6569   -21.6977    20.7134 C       7      r7     0.0005
  11927 C          -20.0811   -21.5877    22.0311 C       7      r7    -0.0018
  11928 C          -20.0099   -22.7884    22.9492 C       7      r7    -0.0007
  11929 C          -19.2747   -23.6270    20.4199 C       7      r7     0.0034
  11930 C          -19.3165   -24.7544    23.7219 C       5      r5    -0.0007
  11931 C          -18.8216   -23.5156    23.1180 C       0      r0    -0.0011
  11932 C          -18.0255   -23.3391    20.8747 C       7      r7    -0.0022
  11933 C          -17.4286   -23.4226    22.2125 C       7      r7    -0.0006
  11934 C          -16.8476   -24.7721    22.1888 C       7      r7    -0.0010
  11935 C          -16.2257   -22.3884    21.8527 C       5      r5    -0.0013
  11936 C          -15.9624   -23.3958    24.7075 C       6      r6    -0.0000
  11937 C          -15.5218   -21.6996    22.9132 C       5      r5    -0.0004
  11938 C          -15.3419   -24.5367    24.2006 C       6      r6     0.0011
  11939 C          -15.3451   -22.2462    24.2150 C       5      r5     0.0011
  11940 C          -14.2446   -21.6589    24.9715 C       7      r7    -0.0001
  11941 C          -14.0114   -20.3868    24.2758 C       7      r7    -0.0000
  11942 C          -12.2961   -20.9666    20.8900 C       6      r6     0.0014
  11943 C          -11.3886   -21.0639    24.8715 C       7      r7    -0.0001
  11944 C          -10.8644   -21.2976    23.5030 C       6      r6     0.0007
  11945 C          -10.8663   -20.6036    21.1745 C       6      r6    -0.0001
  11946 C          -10.3644   -22.6904    23.2538 C       6      r6     0.0008
  11947 C          -10.3023   -23.8985    24.0625 C       6      r6    -0.0011
  11948 C           -8.2524   -20.5078   -25.0169 C       6      r6     0.0015
  11949 C           -8.3414   -20.8340    23.6980 C       5      r5     0.0023
  11950 C           -7.1661   -21.4155    23.2349 C       5      r5     0.0010
  11951 C           -7.0763   -24.0206    20.8233 C       6      r6     0.0003
  11952 C           -6.9651   -20.9117    21.9066 C       5      r5     0.0008
  11953 C           -6.5560   -23.7024    22.1905 C       6      r6    -0.0017
  11954 C           -6.2034   -24.8188    23.1184 C       0      r0    -0.0024
  11955 C           -6.0454   -21.7720    24.1777 C       6      r6    -0.0034
  11956 C           -5.8702   -24.5132    24.5140 C       0      r0    -0.0006
  11957 C           -5.7065   -21.4792    21.2650 C       0      r0     0.0008
  11958 C           -5.4707   -22.7526    21.9462 C       6      r6    -0.0021
  11959 C           -5.1306   -20.6954    24.3804 C       7      r7    -0.0012
  11960 C           -4.4440   -24.1497    24.7519 C       0      r0     0.0004
  11961 C           -4.2929   -23.5632    21.4922 C       6      r6    -0.0007
  11962 C           -3.2441   -24.2722    23.7777 C       5      r5    -0.0008
  11963 C           -3.1932   -23.7501    22.4322 C       5      r5    -0.0037
  11964 C           -2.7057   -20.4595    24.7956 C       7      r7     0.0015
  11965 C           -1.8718   -24.2592    24.1167 C       5      r5    -0.0041
  11966 C           -1.8652   -23.2673    22.0162 C       5      r5     0.0180
  11967 C           -1.7152   -22.5446    20.7598 C       0      r0     0.0264
  11968 C           -1.1418   -20.5176    23.0637 C       5      r5     0.0397
  11969 C           -0.9691   -23.6904    23.1066 C       5      r5     0.0214
  11970 C           -0.6153   -21.5903    20.6546 C       6      r6     0.0199
  11971 C           -0.5808   -21.1400    24.2476 C       5      r5     0.0221
  11972 C           -0.3555   -20.6474    21.7640 C       6      r6    -0.0566
  11973 C            0.4211   -23.2631    23.4026 C       5      r5     0.0063
  11974 C            0.5434   -22.1265    24.2418 C       5      r5    -0.0043
  11975 C            1.8098   -23.3892    22.7015 C       5      r5     0.0312
  11976 C            1.9738   -21.7062    24.4324 C       5      r5     0.0267
  11977 C            2.7130   -24.5442    22.5716 C       7      r7     0.0134
  11978 C            2.6099   -22.2261    23.1820 C       5      r5    -0.0001
  11979 C            4.0229   -24.7857    23.2898 C       7      r7    -0.0052
  11980 C            5.4240   -24.8147    22.8001 C       6      r6     0.0001
  11981 C            5.5114   -23.2403    24.7157 C       7      r7    -0.0028
  11982 C            6.0766   -23.7178    23.4535 C       6      r6    -0.0017
  11983 C            6.9913   -21.5608    21.3389 C       7      r7     0.0068
  11984 C            7.5100   -23.3258    23.2399 C       7      r7    -0.0042
  11985 C            7.8982   -22.3973    22.1376 C       7      r7     0.0002
  11986 C            8.4244   -24.8639   -25.0223 C       5      r5    -0.0058
  11987 C            8.5785   -23.6852    24.1195 C       7      r7    -0.0026
  11988 C            8.7001   -23.1948    21.2250 C       7      r7    -0.0030
  11989 C            9.8631   -22.9234    24.0587 C       7      r7    -0.0013
  11990 C           10.1678   -23.0686    21.4741 C       7      r7    -0.0004
  11991 C           10.2356   -20.6154    20.4441 C       6      r6     0.0007
  11992 C           10.6463   -21.9806    20.5842 C       7      r7    -0.0009
  11993 C           10.6788   -23.2266    22.8477 C       7      r7    -0.0031
  11994 C           10.9078   -22.4777    25.0110 C       5      r5     0.0001
  11995 C           11.7838   -24.0669    23.4048 C       5      r5    -0.0012
  11996 C           12.0659   -23.2942    24.5690 C       5      r5    -0.0005
  11997 C           13.4619   -21.4430    24.4426 C       5      r5    -0.0009
  11998 C           14.3161   -22.2291    20.5926 C       7      r7     0.0004
  11999 C           14.7569   -24.8638    24.5322 C       0      r0     0.0005
  12000 C           14.5998   -20.5799    24.2845 C       5      r5     0.0007
  12001 C           15.5558   -22.2844    21.3471 C       7      r7     0.0007
  12002 C           16.0025   -24.9545    23.7151 C       0      r0     0.0004
  12003 C           15.8508   -20.9447    21.9227 C       5      r5     0.0008
  12004 C           16.5281   -23.4021    21.1095 C       7      r7    -0.0004
  12005 C           17.2531   -24.1545    23.5404 C       0      r0     0.0004
  12006 C           17.5574   -23.8179    22.1552 C       0      r0     0.0001
  12007 C           18.2172   -24.2104    24.6001 C       0      r0     0.0009
  12008 C           18.9466   -24.1761    21.6904 C       6      r6    -0.0002
  12009 C           19.2204   -21.8022    24.6824 C       5      r5    -0.0011
  12010 C           19.4682   -23.3139    24.6540 C       0      r0     0.0007
  12011 C           19.5492   -21.2510    23.4051 C       5      r5     0.0003
  12012 C           19.8342   -23.0043    21.3743 C       6      r6     0.0005
  12013 C           20.2954   -21.9107    22.2662 C       6      r6     0.0002
  12014 C           20.8154   -23.6379    24.7884 C       0      r0    -0.0003
  12015 C           21.5555   -21.2504    21.8913 C       7      r7     0.0004
  12016 C           22.0379   -20.9405    20.5156 C       7      r7     0.0011
  12017 C           22.2814   -23.7746    24.8348 C       7      r7    -0.0005
  12018 C           22.5697   -20.8543    22.8748 C       7      r7     0.0004
  12019 C           22.9257   -22.8155    24.0866 C       7      r7    -0.0003
  12020 C           23.5833   -21.9206    23.2668 C       7      r7     0.0009
  12021 C           24.1736   -22.6267    20.8924 C       7      r7     0.0005
  12022 C           24.2276   -22.8748    22.3026 C       7      r7     0.0002
  12023 C           24.6441   -24.7207    24.1291 C       7      r7     0.0003
  12024 C           25.0235   -23.9671    22.9060 C       7      r7     0.0000
  12025 C          -24.0846   -17.6276    22.3596 C       7      r7     0.0010
  12026 C          -23.8324   -17.4786    24.9206 C       7      r7    -0.0008
  12027 C          -23.3168   -19.4565    20.6222 C       7      r7    -0.0003
  12028 C          -23.3866   -18.0152    23.6004 C       7      r7     0.0016
  12029 C          -23.1723   -17.1906    21.2595 C       7      r7     0.0002
  12030 C          -22.4661   -20.2307    21.5337 C       5      r5    -0.0010
  12031 C          -21.9677   -18.4791    23.4599 C       7      r7     0.0010
  12032 C          -21.6332   -19.6803    22.6088 C       6      r6    -0.0004
  12033 C          -21.2613   -15.9328    23.7700 C       7      r7     0.0009
  12034 C          -20.9919   -17.4360    23.6277 C       7      r7     0.0008
  12035 C          -20.3476   -20.3334    22.7492 C       7      r7    -0.0014
  12036 C          -19.8992   -17.4467    22.6664 C       5      r5     0.0003
  12037 C          -19.6129   -20.0695    24.0231 C       7      r7     0.0004
  12038 C          -19.6906   -16.1658    22.0538 C       7      r7     0.0005
  12039 C          -18.7202   -18.4043    22.5507 C       5      r5    -0.0014
  12040 C          -18.4768   -19.2200    23.6973 C       7      r7     0.0004
  12041 C          -17.3699   -17.9094    22.2277 C       7      r7     0.0000
  12042 C          -17.3054   -18.8388    24.4695 C       7      r7     0.0001
  12043 C          -17.3318   -16.8300    21.2584 C       7      r7     0.0005
  12044 C          -16.5486   -18.1281    23.4646 C       7      r7     0.0009
  12045 C          -16.1847   -16.0295    20.8745 C       7      r7     0.0006
  12046 C          -15.1821   -17.3803    23.2759 C       7      r7     0.0005
  12047 C          -14.6374   -20.4859    22.9786 C       5      r5     0.0008
  12048 C          -14.4608   -16.9955    24.7935 C       5      r5    -0.0000
  12049 C          -14.2812   -19.4620    22.0110 C       7      r7     0.0011
  12050 C          -14.1044   -18.0711    22.4937 C       7      r7    -0.0001
  12051 C          -13.4084   -19.9901    20.9132 C       7      r7     0.0004
  12052 C          -13.1287   -19.2956    24.8773 C       7      r7    -0.0001
  12053 C          -13.1788   -16.0597    24.5178 C       7      r7     0.0002
  12054 C          -12.8575   -17.3217    22.4204 C       7      r7    -0.0011
  12055 C          -12.5355   -16.2485    23.3117 C       7      r7    -0.0003
  12056 C          -11.6946   -17.5109    21.4801 C       7      r7     0.0006
  12057 C          -10.6827   -16.5827    21.8437 C       7      r7    -0.0036
  12058 C          -10.3466   -20.3337    22.4990 C       6      r6     0.0002
  12059 C          -10.1085   -15.8951    24.1013 C       7      r7    -0.0017
  12060 C           -9.3994   -16.2891    21.1704 C       7      r7     0.0192
  12061 C           -8.9715   -20.1881    22.6768 C       5      r5     0.0007
  12062 C           -8.7880   -18.1428    25.0369 C       5      r5    -0.0010
  12063 C           -8.6534   -15.8134    23.9963 C       7      r7    -0.0010
  12064 C           -8.0530   -17.1058    24.3329 C       7      r7    -0.0012
  12065 C           -8.1127   -20.1732    21.5258 C       5      r5     0.0011
  12066 C           -6.7102   -17.4252    23.7713 C       7      r7    -0.0021
  12067 C           -6.4228   -18.7355    24.2181 C       5      r5    -0.0010
  12068 C           -6.1350   -18.4390    20.5547 C       0      r0    -0.0030
  12069 C           -5.9437   -16.9292    22.5884 C       7      r7     0.0005
  12070 C           -5.3395   -17.9612    21.7313 C       6      r6    -0.0021
  12071 C           -5.3212   -19.3392    23.7058 C       7      r7    -0.0002
  12072 C           -4.4927   -18.8188    22.5693 C       7      r7    -0.0033
  12073 C           -4.2541   -15.8349    24.8730 C       7      r7    -0.0690
  12074 C           -3.2116   -16.2694    24.0475 C       7      r7     0.0291
  12075 C           -3.1779   -15.7382    22.7293 C       7      r7     0.0232
  12076 C           -3.0161   -18.9215    22.6289 C       7      r7     0.0053
  12077 C           -2.5827   -16.5817    21.7360 C       7      r7    -0.0072
  12078 C           -2.4377   -20.0209    23.3960 C       7      r7    -0.0089
  12079 C           -2.3484   -17.1699    24.7040 C       7      r7    -0.0053
  12080 C           -2.1142   -17.8413    22.1939 C       7      r7    -0.0115
  12081 C           -1.6410   -15.9902    20.9599 C       7      r7     0.0032
  12082 C           -1.0810   -17.4851    24.2325 C       7      r7     0.0030
  12083 C           -0.9100   -17.5141    22.9163 C       7      r7     0.0509
  12084 C            0.0434   -16.4858    22.5617 C       7      r7     0.0199
  12085 C            0.8162   -19.9379    21.8663 C       5      r5     0.2340
  12086 O            1.1330   -19.0140    23.0404 O       5      r5    -0.5212
  12087 C            1.8434   -16.4053    24.4906 C       7      r7     0.0012
  12088 C            1.8524   -20.1498    20.9864 C       7      r7    -0.0328
  12089 C            2.5036   -18.7300    22.5323 C       5      r5     0.2135
  12090 C            3.0241   -19.3823    21.4083 C       7      r7    -0.0815
  12091 C            3.1740   -16.6212    23.6250 C       0      r0    -0.0191
  12092 C            3.4354   -17.7284    22.8614 C       5      r5     0.1675
  12093 C            4.3691   -19.0208    21.1583 C       7      r7     0.2428
  12094 O            4.7507   -17.8975    22.0777 O       5      r5    -0.4455
  12095 C            7.4703   -20.3633    20.6636 C       7      r7     0.0116
  12096 O            7.4075   -16.5730    22.2955 O       6      r6    -0.4450
  12097 C            8.7388   -17.2511    22.0679 C       5      r5     0.2426
  12098 C            9.4323   -17.1614    20.8060 C       7      r7    -0.0511
  12099 C            9.5378   -17.7676    24.4542 C       7      r7     0.0223
  12100 C            9.5872   -17.8928    23.0262 C       7      r7    -0.0394
  12101 C           10.6600   -17.9465    20.8240 C       7      r7     0.0057
  12102 C           10.7353   -17.1141    24.9944 C       7      r7    -0.0084
  12103 C           10.7802   -18.3926    22.1812 C       7      r7    -0.0016
  12104 C           12.1171   -18.8215    22.5239 C       7      r7    -0.0024
  12105 C           12.1895   -17.2823    24.6890 C       7      r7    -0.0022
  12106 C           12.7385   -17.8107    23.4301 C       7      r7    -0.0022
  12107 C           13.0236   -19.1896    21.3862 C       7      r7    -0.0031
  12108 C           13.3637   -16.7445    22.6401 C       6      r6    -0.0021
  12109 C           14.2441   -17.0114    21.5162 C       7      r7    -0.0001
  12110 C           14.1484   -18.3501    20.9127 C       7      r7     0.0001
  12111 C           14.5078   -15.9830    20.5003 C       7      r7     0.0009
  12112 C           15.4904   -20.2621    23.1436 C       5      r5    -0.0004
  12113 C           16.4349   -19.1301    23.2742 C       5      r5     0.0003
  12114 C           16.9198   -20.0851    21.3538 C       5      r5     0.0013
  12115 C           16.8861   -18.9920    24.7148 C       7      r7    -0.0028
  12116 C           17.3912   -18.9624    22.1753 C       5      r5     0.0014
  12117 C           18.1391   -19.8510    24.6004 C       7      r7    -0.0019
  12118 C           18.0579   -16.7899    20.7826 C       7      r7     0.0007
  12119 C           18.8404   -18.8130    22.4220 C       5      r5    -0.0003
  12120 C           18.9683   -19.9522    23.4241 C       5      r5    -0.0004
  12121 C           18.9868   -16.2259    23.1883 C       6      r6    -0.0002
  12122 C           19.5609   -18.9078    20.8625 C       7      r7     0.0007
  12123 C           19.7930   -17.5084    22.9387 C       5      r5    -0.0007
  12124 C           20.4862   -18.0245    24.2250 C       5      r5    -0.0003
  12125 C           20.9459   -17.4611    21.8694 C       5      r5     0.0002
  12126 C           21.1078   -18.5899    20.9688 C       7      r7     0.0002
  12127 C           21.4212   -19.1210    24.4637 C       7      r7    -0.0009
  12128 C           21.5873   -16.1465    21.8011 C       0      r0    -0.0006
  12129 C           22.5761   -19.6082    23.6252 C       7      r7    -0.0013
  12130 C           23.1091   -16.3912    23.6407 C       6      r6    -0.0001
  12131 C           23.8922   -17.5591    23.2237 C       0      r0    -0.0003
  12132 C           23.8026   -18.8448    23.9409 C       7      r7     0.0004
  12133 C           24.7053   -16.2234    21.3643 C       7      r7    -0.0007
  12134 C           24.9659   -17.4011    22.2107 C       7      r7     0.0009
  12135 C          -25.2044   -12.0335    21.8472 C       7      r7    -0.0011
  12136 C          -25.0876   -15.0103    21.9489 C       7      r7    -0.0003
  12137 C          -23.7334   -12.1432    21.7335 C       7      r7    -0.0008
  12138 C          -23.8611   -14.7294    21.2100 C       7      r7    -0.0006
  12139 C          -23.2870   -13.3847    21.1253 C       7      r7    -0.0012
  12140 C          -23.0453   -15.8477    20.7612 C       7      r7    -0.0003
  12141 C          -22.4997   -14.0584    24.4560 C       6      r6     0.0011
  12142 C          -22.1841   -15.4869    24.7446 C       7      r7     0.0010
  12143 C          -21.7620   -11.6860    23.7322 C       6      r6     0.0001
  12144 C          -21.5895   -13.1495    23.7537 C       6      r6     0.0004
  12145 C          -20.4747   -15.1721    22.8195 C       7      r7     0.0007
  12146 C          -20.4590   -13.6655    22.9582 C       7      r7     0.0003
  12147 C          -19.3610   -11.5098    22.8629 C       5      r5     0.0007
  12148 C          -19.5923   -12.8369    22.2268 C       7      r7     0.0001
  12149 C          -18.7038   -13.1988    21.0247 C       7      r7     0.0005
  12150 C          -18.5160   -14.5010    20.9564 C       7      r7     0.0014
  12151 C          -18.5355   -15.8811    21.1782 C       7      r7     0.0006
  12152 C          -16.8691   -11.3893    24.4658 C       6      r6     0.0002
  12153 C          -16.3072   -12.4963    23.7491 C       7      r7     0.0000
  12154 C          -15.7153   -15.0627    21.9429 C       7      r7    -0.0004
  12155 C          -15.8428   -13.6324    24.5528 C       7      r7     0.0000
  12156 C          -15.7941   -15.1026    24.3111 C       7      r7     0.0003
  12157 C          -15.6620   -12.4445    22.3708 C       7      r7    -0.0007
  12158 C          -15.4899   -15.8060    23.1080 C       7      r7    -0.0004
  12159 C          -15.3191   -13.6213    21.6473 C       7      r7    -0.0009
  12160 C          -14.4095   -13.5860    20.5585 C       6      r6    -0.0013
  12161 C          -11.9797   -12.1529    21.1953 C       0      r0     0.0099
  12162 C          -11.4268   -13.3880    23.8697 C       0      r0    -0.0030
  12163 C          -11.3871   -13.4460    21.3152 C       0      r0     0.0295
  12164 C          -11.1861   -13.9972    22.6960 C       0      r0    -0.0023
  12165 C          -11.0640   -15.6194    22.9910 C       7      r7     0.0026
  12166 H           -9.4840   -11.8844    22.8659 H       0      r0     0.0426
  12167 C           -8.8649   -14.9379    21.1966 C       0      r0    -0.0642
  12168 C           -8.3717   -13.7092    21.2446 C       0      r0     0.2308
  12169 C           -7.8210   -14.6275    24.1683 C       7      r7     0.0002
  12170 C           -7.5209   -12.2914    25.0329 C       5      r5    -0.0022
  12171 C           -7.1505   -13.5214    22.0348 C       0      r0    -0.0341
  12172 C           -6.8496   -14.5580    22.9835 C       7      r7     0.0024
  12173 C           -6.2154   -12.7056    21.2177 C       5      r5     0.0262
  12174 C           -6.0788   -15.5335    22.2518 C       7      r7    -0.0033
  12175 C           -5.5362   -15.1901    20.8596 C       0      r0    -0.0047
  12176 C           -5.0481   -11.9660    21.3665 C       5      r5     0.0005
  12177 C           -4.2274   -14.6112    20.8197 C       7      r7     0.0074
  12178 O           -3.6247   -13.3835    24.4831 O       7      r7    -0.5310
  12179 C           -4.0260   -12.1257    22.3392 C       6      r6    -0.0400
  12180 C           -3.8944   -13.3894    23.0484 C       7      r7     0.2626
  12181 C           -3.6662   -14.4809    22.1722 C       7      r7    -0.0605
  12182 C           -0.8036   -12.0940    24.0925 C       7      r7     0.0059
  12183 C           -0.4132   -15.5800    21.5420 C       6      r6    -0.0059
  12184 C           -0.2248   -12.2709    22.8696 C       7      r7    -0.0007
  12185 C            0.0034   -14.2114    21.3307 C       7      r7     0.0020
  12186 C            0.3228   -13.5426    22.5380 C       7      r7    -0.0010
  12187 C            0.3224   -13.9929    25.0248 C       6      r6    -0.0041
  12188 C           -0.0096   -11.3097    20.6595 C       7      r7    -0.0085
  12189 C            0.6510   -14.3784    23.6703 C       6      r6    -0.0005
  12190 C            0.8587   -15.7792    23.5280 C       7      r7     0.0052
  12191 C            3.5121   -12.6294    23.3116 C       6      r6    -0.0042
  12192 C            3.6232   -13.2259    24.5603 C       6      r6    -0.0035
  12193 C            3.9758   -13.3345    22.1447 C       6      r6    -0.0032
  12194 C            3.9259   -12.5624    20.9647 C       6      r6    -0.0034
  12195 C            4.0666   -15.4240    23.3937 C       6      r6     0.0592
  12196 C            4.0057   -14.7350    22.1276 C       6      r6     0.0045
  12197 C            4.2272   -14.5691    24.5687 C       6      r6    -0.0052
  12198 C            4.3848   -15.2100    20.7456 C       6      r6     0.0397
  12199 C            5.6803   -15.6120    20.7228 C       0      r0    -0.0050
  12200 C            6.9282   -15.9765    20.9402 C       6      r6     0.2464
  12201 C            8.3579   -11.7802    24.5339 C       7      r7     0.0022
  12202 C            9.6193   -11.9759    21.7016 C       7      r7     0.0017
  12203 C            9.7749   -11.8925    24.7454 C       7      r7    -0.0005
  12204 C           10.3187   -12.7281    22.5872 C       7      r7     0.0041
  12205 C           10.7928   -12.0777    23.7180 C       7      r7    -0.0018
  12206 C           10.9908   -13.8846    22.2514 C       7      r7     0.0061
  12207 C           11.3747   -14.3104    20.9478 C       7      r7    -0.0004
  12208 C           11.8229   -14.6445    23.1483 C       5      r5     0.0000
  12209 C           11.9027   -14.1763    24.5406 C       0      r0    -0.0012
  12210 C           12.0436   -11.4237    23.8121 C       5      r5     0.0006
  12211 C           12.3235   -15.2160    21.0115 C       5      r5    -0.0004
  12212 C           12.5449   -15.5585    22.3474 C       5      r5    -0.0016
  12213 C           12.8814   -12.0772    20.8037 C       5      r5    -0.0006
  12214 C           13.3278   -13.9411    24.9421 C       0      r0    -0.0002
  12215 C           13.5304   -11.7658    23.5427 C       7      r7     0.0009
  12216 C           13.7177   -11.9457    21.9708 C       7      r7     0.0002
  12217 C           14.1482   -13.0019    24.2901 C       7      r7     0.0014
  12218 C           15.0382   -12.1846    21.5184 C       7      r7     0.0001
  12219 C           15.5792   -13.2662    24.5254 C       7      r7    -0.0002
  12220 C           16.2998   -11.9370    22.4226 C       7      r7     0.0008
  12221 C           16.6119   -13.0500    23.5163 C       7      r7     0.0016
  12222 C           16.8425   -14.6508    20.6591 C       5      r5     0.0011
  12223 C           17.3479   -11.5817    21.2478 C       5      r5    -0.0003
  12224 C           18.1265   -15.3419    20.9773 C       5      r5    -0.0004
  12225 C           17.9165   -13.5821    23.6525 C       7      r7    -0.0001
  12226 C           18.2139   -14.4880    24.8214 C       7      r7    -0.0006
  12227 C           18.7244   -15.8276    24.5471 C       7      r7    -0.0005
  12228 C           18.9145   -15.1517    22.1797 C       6      r6     0.0004
  12229 C           19.1416   -13.8071    22.7668 C       6      r6    -0.0003
  12230 C           20.4825   -11.3689    24.8973 C       7      r7    -0.0008
  12231 C           20.4805   -13.4574    23.2991 C       7      r7    -0.0010
  12232 C           20.9074   -12.0931    23.7096 C       7      r7    -0.0008
  12233 C           21.3132   -14.4951    23.9159 C       7      r7    -0.0003
  12234 C           21.7932   -15.2694    20.6045 C       7      r7     0.0000
  12235 C           21.9206   -15.6343    23.1384 C       6      r6    -0.0008
  12236 C           21.9526   -11.9090    20.9832 C       7      r7     0.0010
  12237 C           22.3480   -11.7478    23.5442 C       7      r7    -0.0010
  12238 C           22.6701   -13.0496    21.6175 C       7      r7     0.0001
  12239 C           22.8481   -14.2530    20.7233 C       7      r7    -0.0001
  12240 C           23.1607   -12.7880    22.9405 C       6      r6    -0.0014
  12241 C           23.7435   -15.7020    24.7515 C       6      r6    -0.0002
  12242 C           24.6655   -11.7568    20.5220 C       7      r7     0.0009
  12243 C           24.7286   -12.7819    23.1149 C       7      r7    -0.0003
  12244 C           24.9718   -14.9506    24.4655 C       7      r7    -0.0011
  12245 C           25.1017   -14.2851    23.1604 C       7      r7    -0.0006
  12246 C           25.0595   -11.8292    24.3885 C       7      r7    -0.0010
  12247 C          -25.0037    -9.2978    24.1624 C       6      r6     0.0004
  12248 C          -24.6909    -7.6296    22.4982 C       7      r7    -0.0007
  12249 C          -23.8198    -9.9415    23.5022 C       6      r6    -0.0006
  12250 C          -23.9159    -8.3827    21.5253 C       7      r7    -0.0011
  12251 C          -23.4945    -9.7063    22.1166 C       7      r7    -0.0010
  12252 C          -22.9763   -10.8996    21.4817 C       7      r7    -0.0012
  12253 C          -22.9695   -10.9316    24.3556 C       6      r6     0.0005
  12254 C          -20.7177   -10.9252    23.1546 C       5      r5     0.0001
  12255 C          -20.5489    -8.2987    22.9797 C       6      r6     0.0007
  12256 C          -20.3878    -9.5440    22.6071 C       5      r5    -0.0003
  12257 C          -20.0847    -7.0442    23.0169 C       6      r6     0.0004
  12258 C          -18.9845    -9.5138    21.7887 C       5      r5     0.0008
  12259 C          -18.6512    -7.0456    22.4918 C       6      r6     0.0004
  12260 C          -18.2585   -10.5654    22.7285 C       5      r5     0.0008
  12261 C          -18.1751    -8.2252    21.8803 C       6      r6     0.0009
  12262 C          -17.3040   -10.1817    23.7888 C       0      r0     0.0002
  12263 C          -17.0194    -8.8733    24.5476 C       0      r0     0.0004
  12264 C          -16.8842    -8.2984    21.1636 C       6      r6     0.0003
  12265 C          -16.3894    -6.9957    20.7048 C       6      r6     0.0010
  12266 C          -16.0368   -10.8203    20.6857 C       0      r0    -0.0008
  12267 C          -15.1774   -11.1428    21.8272 C       0      r0    -0.0008
  12268 C          -13.9328    -8.1273    22.4456 C       7      r7    -0.0005
  12269 C          -13.8018    -9.4006    23.0963 C       7      r7    -0.0011
  12270 C          -13.8037   -10.5769    22.2019 C       7      r7    -0.0007
  12271 C          -13.6866    -8.2171    20.9804 C       7      r7    -0.0009
  12272 C          -13.6896    -9.7068    24.5534 C       7      r7    -0.0012
  12273 C          -12.4898   -10.5100    24.9167 C       7      r7     0.0019
  12274 C          -12.4700   -11.1443    22.1387 C       7      r7     0.0008
  12275 C          -12.3530    -8.7449    20.6806 C       7      r7     0.0024
  12276 C          -11.1477    -7.0551    21.8303 C       7      r7    -0.0020
  12277 C          -11.3638   -10.4434    22.8948 C       7      r7     0.0038
  12278 C          -11.1593    -8.4061    21.4290 C       7      r7     0.0053
  12279 C          -11.1412   -10.5260    24.2850 C       7      r7    -0.0051
  12280 C          -10.3434    -9.3692    22.4198 C       5      r5    -0.0027
  12281 C          -10.0398    -9.6673    24.7984 C       7      r7    -0.0024
  12282 C           -9.9235    -8.6945    23.7665 C       7      r7    -0.0040
  12283 C           -9.4161    -7.3459    23.8317 C       7      r7    -0.0005
  12284 C           -8.9243    -9.9479    22.0938 C       7      r7     0.0314
  12285 C           -8.6844   -11.1680    22.9189 C       7      r7     0.0051
  12286 C           -8.4758    -6.7787    24.8026 C       7      r7    -0.0015
  12287 C           -7.9237    -9.1442    21.4017 C       7      r7     0.0096
  12288 C           -7.6596   -11.3661    23.8697 C       7      r7     0.0022
  12289 C           -6.6876    -8.8356    22.1094 C       7      r7     0.0004
  12290 C           -6.5225   -10.4269    24.1641 C       7      r7    -0.0010
  12291 C           -6.0527    -9.3786    23.2993 C       7      r7     0.0024
  12292 C           -5.6720    -7.8825    21.5684 C       5      r5     0.0007
  12293 C           -4.7531    -8.7694    23.5204 C       5      r5    -0.0017
  12294 C           -4.5772    -7.7230    22.4821 C       5      r5    -0.0011
  12295 C           -3.7898    -9.5908    24.2041 C       6      r6    -0.0052
  12296 C           -3.2914    -7.0754    22.2924 C       6      r6    -0.0012
  12297 C           -3.0397   -11.0564    22.4500 C       5      r5     0.0270
  12298 C           -2.9224   -10.2021    21.3196 C       7      r7    -0.0079
  12299 C           -2.4364    -7.0073    23.4555 C       7      r7    -0.0005
  12300 C           -2.4678   -10.2566    23.6134 C       7      r7    -0.0006
  12301 C           -2.4459    -7.7450    21.2530 C       7      r7     0.0006
  12302 C           -1.9862    -9.1095    21.6093 C       7      r7     0.0040
  12303 C           -1.8204   -11.2223    24.5590 C       7      r7     0.0244
  12304 C           -1.3519    -7.9474    23.7248 C       7      r7    -0.0013
  12305 C           -1.3344    -9.2578    22.9398 C       7      r7    -0.0032
  12306 C           -0.1738    -7.5612    24.3947 C       7      r7    -0.0023
  12307 C            0.1251   -11.1598    22.0645 C       7      r7    -0.0017
  12308 C            0.2099    -9.7652    22.4830 C       7      r7     0.0075
  12309 C            0.5833    -9.1412    21.0726 C       5      r5    -0.0603
  12310 C            0.6370    -8.7574    24.7052 C       7      r7     0.0016
  12311 C            1.2421    -7.9440    20.8216 C       6      r6     0.2407
  12312 C            1.3758    -9.4398    23.6291 C       7      r7    -0.0037
  12313 C            1.7112    -7.3955    22.0750 C       7      r7    -0.0421
  12314 C            2.1556   -10.6707    24.0253 C       6      r6    -0.0023
  12315 C            2.5182    -8.3898    22.9055 C       7      r7     0.0059
  12316 C            3.0635   -11.2817    23.1680 C       6      r6    -0.0043
  12317 C            3.2821    -7.7089    24.0697 C       6      r6     0.0033
  12318 C            3.5409    -9.0721    21.9857 C       6      r6    -0.0007
  12319 C            3.5592   -10.5450    22.1072 C       6      r6    -0.0024
  12320 C            4.1221    -8.5851    24.6416 C       0      r0     0.0111
  12321 C            4.1738   -11.1782    21.0652 C       6      r6    -0.0003
  12322 C            4.4834    -8.4871    21.1421 C       7      r7     0.0188
  12323 C            5.1278    -7.2173    21.3587 C       7      r7     0.0064
  12324 C            5.6930   -10.6617    24.7057 C       7      r7     0.0016
  12325 C            5.7559    -7.0686    22.6920 C       7      r7    -0.0042
  12326 C            6.2970    -8.1239    23.4130 C       7      r7     0.0074
  12327 C            6.4471   -10.5820    23.4770 C       7      r7    -0.0031
  12328 C            6.4278    -9.3825    22.6064 C       7      r7    -0.0055
  12329 C            6.8510    -9.5885    21.2555 C       7      r7    -0.0026
  12330 C            6.7597    -8.0039    24.8811 C       7      r7    -0.0616
  12331 C            7.7163   -11.3156    23.3139 C       7      r7     0.0023
  12332 C            8.0126   -10.3253    21.0185 C       5      r5    -0.0030
  12333 C            7.9433    -7.0809   -25.0164 C       0      r0     0.0240
  12334 C            8.4253   -11.2396    22.0455 C       7      r7    -0.0004
  12335 C            9.1351    -7.6217    24.3465 C       5      r5    -0.0062
  12336 C            9.9171    -7.2021    23.1467 C       5      r5     0.0007
  12337 C           10.0427    -8.6767    24.8830 C       5      r5    -0.0001
  12338 C           10.5802    -7.0151    21.0043 C       7      r7     0.0000
  12339 C           10.7599    -8.3078    22.7907 C       5      r5    -0.0005
  12340 C           10.8277    -9.2342    23.8182 C       5      r5    -0.0012
  12341 C           11.5563    -8.0068    21.5787 C       7      r7     0.0011
  12342 C           11.8909   -10.1084    24.0568 C       5      r5    -0.0005
  12343 C           12.4191    -8.7722    20.6998 C       7      r7     0.0017
  12344 C           13.1671    -9.5981    24.4501 C       5      r5    -0.0001
  12345 C           13.3581    -8.2891    24.8580 C       5      r5     0.0002
  12346 C           14.1322   -10.4669    24.1062 C       7      r7     0.0012
  12347 C           14.7217    -7.8910    24.7268 C       5      r5     0.0006
  12348 C           15.4450   -10.0703    24.1873 C       7      r7     0.0008
  12349 C           15.7581    -8.8232    24.7498 C       7      r7     0.0004
  12350 C           15.9030    -7.4682    21.0706 C       7      r7     0.0004
  12351 C           16.3679   -10.7049    23.2948 C       7      r7     0.0003
  12352 C           16.9744    -7.0139    21.8570 C       5      r5     0.0011
  12353 C           17.3430    -9.8061    22.7150 C       7      r7     0.0004
  12354 C           17.6420   -10.1754    21.3122 C       5      r5    -0.0010
  12355 C           18.0856    -9.0048    24.7479 C       7      r7     0.0007
  12356 C           18.2782    -8.9997    23.4158 C       7      r7     0.0003
  12357 C           18.4040    -7.1999    21.9016 C       6      r6     0.0001
  12358 C           19.0641    -8.0426    22.8111 C       7      r7     0.0001
  12359 C           20.2864    -9.9240    24.7760 C       7      r7     0.0006
  12360 C           20.4794    -8.0613    23.0486 C       7      r7    -0.0001
  12361 C           21.0589    -9.0854    23.8821 C       7      r7     0.0004
  12362 C           21.2981    -7.1847    22.2020 C       6      r6    -0.0006
  12363 C           22.4455   -10.6233    20.5496 C       7      r7     0.0025
  12364 C           22.5069    -9.1612    23.9001 C       7      r7     0.0005
  12365 C           22.7527    -7.1543    22.2940 C       7      r7    -0.0007
  12366 C           23.0473   -10.5130    23.9765 C       7      r7    -0.0007
  12367 C           23.3276    -8.1902    23.1563 C       7      r7    -0.0004
  12368 C           24.4105   -10.5837    24.4490 C       6      r6     0.0004
  12369 C           24.7135    -8.3972    23.1879 C       7      r7    -0.0007
  12370 C          -24.9289    -5.3697    23.8109 C       5      r5     0.0010
  12371 C          -24.8918    -6.1800    22.6688 C       7      r7     0.0001
  12372 C          -22.5836    -3.2753    20.9128 C       7      r7     0.0009
  12373 C          -22.3121    -2.9207    24.6033 C       7      r7    -0.0002
  12374 C          -22.4180    -2.6357    23.1228 C       7      r7    -0.0001
  12375 C          -22.3114    -3.7805    22.2090 C       7      r7     0.0006
  12376 C          -21.2509    -4.9076    22.1554 C       7      r7     0.0004
  12377 C          -21.1587    -3.8178    24.9549 C       7      r7     0.0000
  12378 C          -21.1602    -5.2897    24.6916 C       7      r7     0.0000
  12379 C          -20.9333    -5.1107    20.7180 C       7      r7     0.0009
  12380 C          -20.8922    -5.7586    23.2359 C       7      r7     0.0003
  12381 C          -19.2168    -2.4526    21.2291 C       6      r6     0.0003
  12382 C          -18.8893    -2.3532    24.5033 C       6      r6     0.0002
  12383 C          -18.7820    -3.8612    20.8917 C       6      r6     0.0002
  12384 C          -17.7949    -3.1545    23.9417 C       6      r6     0.0002
  12385 C          -17.6163    -6.0986    22.7681 C       6      r6     0.0001
  12386 C          -17.4509    -4.3397    24.7190 C       6      r6    -0.0001
  12387 C          -17.5457    -5.6831    24.2511 C       6      r6     0.0001
  12388 C          -17.3731    -3.6930    20.5310 C       6      r6     0.0006
  12389 C          -17.2606    -2.6703    22.6875 C       6      r6    -0.0001
  12390 C          -16.5623    -3.5619    21.7566 C       6      r6     0.0000
  12391 C          -16.5017    -6.0246    21.8265 C       6      r6     0.0005
  12392 C          -15.7754    -4.7890    22.1832 C       0      r0     0.0007
  12393 C          -14.6666    -4.8301    23.1724 C       7      r7     0.0003
  12394 C          -14.4103    -6.1233    23.8037 C       7      r7    -0.0001
  12395 C          -13.4037    -6.8793    23.0551 C       7      r7    -0.0009
  12396 C          -13.4300    -4.0812    22.9590 C       7      r7     0.0009
  12397 C          -12.9089    -3.4279    24.1424 C       7      r7    -0.0000
  12398 C          -12.3899    -6.2519    22.2021 C       7      r7    -0.0008
  12399 C          -12.4849    -4.8170    22.0152 C       7      r7    -0.0002
  12400 C          -11.6626    -2.6283    24.1684 C       7      r7     0.0011
  12401 C          -11.5674    -4.1077    21.1168 C       7      r7     0.0011
  12402 C          -10.6150    -3.1742    21.7127 C       7      r7     0.0003
  12403 C          -10.6267    -2.9430    23.1749 C       7      r7     0.0003
  12404 C           -9.9398    -6.6696    22.6260 C       6      r6    -0.0003
  12405 C           -9.4283    -2.7835    20.9388 C       6      r6    -0.0011
  12406 C           -9.4800    -3.5459    23.9035 C       6      r6     0.0010
  12407 C           -9.2707    -5.4342    22.1952 C       6      r6     0.0003
  12408 C           -8.8372    -4.7946    23.4438 C       6      r6     0.0001
  12409 C           -8.8080    -2.7101    24.9047 C       6      r6    -0.0017
  12410 C           -8.2670    -5.6938    21.1433 C       6      r6    -0.0003
  12411 C           -7.8260    -5.6385    24.1488 C       6      r6    -0.0043
  12412 C           -7.3971    -2.4023    24.7447 C       6      r6    -0.0019
  12413 C           -7.1409    -2.6422    22.1834 C       7      r7     0.0036
  12414 C           -6.9536    -5.4279    21.7001 C       7      r7     0.0002
  12415 C           -6.8118    -3.0753    23.5881 C       7      r7     0.0028
  12416 C           -6.7268    -5.4935    23.1677 C       7      r7    -0.0015
  12417 C           -5.9169    -4.5494    21.0651 C       7      r7    -0.0014
  12418 C           -6.0549    -4.3153    23.7791 C       7      r7    -0.0008
  12419 C           -5.9913    -3.0663    21.3619 C       7      r7    -0.0008
  12420 C           -5.0789    -4.5876    24.8451 C       0      r0    -0.0029
  12421 C           -3.9701    -5.3125    24.5887 C       0      r0    -0.0035
  12422 C           -3.4083    -4.3535    20.9529 C       6      r6    -0.0003
  12423 C           -3.5335    -3.0458    21.7321 C       6      r6    -0.0049
  12424 C           -2.7297    -5.9450    24.5060 C       7      r7    -0.0031
  12425 C           -2.6017    -2.4091    22.6645 C       6      r6     0.0034
  12426 C           -2.1248    -4.9049    20.5045 C       0      r0     0.0001
  12427 C           -1.8702    -3.1467    23.7208 C       6      r6    -0.0003
  12428 C           -0.8696    -4.2071    20.6714 C       6      r6     0.0041
  12429 C           -0.8332    -4.0451    23.2300 C       6      r6     0.0002
  12430 C           -0.4776    -5.1239    24.0899 C       7      r7    -0.0011
  12431 C           -0.1606    -3.9333    21.8705 C       6      r6     0.0004
  12432 C            0.3393    -6.2486    23.8214 C       7      r7    -0.0043
  12433 C            1.2727    -3.6114    21.7096 C       6      r6     0.0003
  12434 C            1.2867    -6.1497    22.7151 C       7      r7     0.0177
  12435 C            1.9034    -2.9744    22.8638 C       0      r0    -0.0023
  12436 C            2.1556    -3.9452    20.5718 C       6      r6     0.0005
  12437 C            2.4666    -4.0220    23.7521 C       5      r5    -0.0024
  12438 C            2.4556    -5.4261    23.3148 C       5      r5     0.0015
  12439 C            3.4153    -6.1756    24.0629 C       5      r5     0.0040
  12440 C            3.4048    -3.9020    24.8583 C       7      r7    -0.0007
  12441 C            4.2118    -5.1817    24.8177 C       7      r7     0.0098
  12442 C            5.6367    -5.0249    24.4217 C       7      r7     0.0027
  12443 C            6.1509    -5.6646    23.2059 C       6      r6    -0.0002
  12444 C            6.3024    -3.7767    24.8300 C       7      r7     0.0000
  12445 C            6.2986    -2.6589    21.2785 C       0      r0    -0.0007
  12446 C            6.6914    -2.7763    23.8919 C       7      r7    -0.0023
  12447 C            6.5337    -4.8097    22.1877 C       6      r6    -0.0012
  12448 C            6.6229    -3.3692    22.5326 C       6      r6    -0.0015
  12449 C            6.8082    -5.4735    20.8554 C       7      r7    -0.0010
  12450 C            8.4663    -2.8603    20.7555 C       0      r0    -0.0011
  12451 C            8.6157    -4.1695    21.2723 C       7      r7    -0.0013
  12452 C            9.8878    -4.7643    21.9081 C       7      r7    -0.0006
  12453 C            9.8644    -6.2706    22.0358 C       7      r7    -0.0014
  12454 C            9.6876    -4.7711    24.6087 C       0      r0     0.0004
  12455 C           10.1349    -4.1797    23.4775 C       6      r6    -0.0006
  12456 C           10.8285    -4.3932    20.7038 C       7      r7     0.0003
  12457 C           11.2482    -3.3318    23.5907 C       5      r5     0.0000
  12458 C           11.7757    -2.7044    24.7896 C       7      r7     0.0013
  12459 C           12.1266    -3.1960    22.4848 C       5      r5     0.0003
  12460 C           12.1359    -3.9785    21.2031 C       6      r6    -0.0007
  12461 C           13.2423    -2.5529    23.0303 C       5      r5    -0.0004
  12462 C           13.3754    -4.6375    20.9853 C       5      r5    -0.0018
  12463 C           14.4481    -4.2469    21.8228 C       5      r5    -0.0010
  12464 C           14.5040    -3.0030    22.5865 C       6      r6     0.0002
  12465 C           14.8956    -6.4476    21.1424 C       7      r7    -0.0006
  12466 C           15.3097    -5.3739    21.9044 C       5      r5    -0.0005
  12467 C           16.6129    -5.7742    22.3099 C       5      r5    -0.0002
  12468 C           16.8584    -2.5288    23.3198 C       7      r7     0.0006
  12469 C           17.1183    -5.0317    24.6313 C       7      r7     0.0006
  12470 C           17.3428    -4.8380    23.2008 C       7      r7     0.0008
  12471 C           17.5734    -3.5374    22.5144 C       7      r7     0.0008
  12472 C           17.6755    -3.1934    21.0801 C       6      r6    -0.0009
  12473 C           19.1363    -6.3006    21.1584 C       7      r7     0.0006
  12474 C           20.5467    -6.3185    21.2900 C       7      r7    -0.0006
  12475 C           21.2610    -5.2990    20.4971 C       7      r7     0.0004
  12476 C           21.8944    -2.1645    24.5630 C       6      r6     0.0010
  12477 C           23.3940    -6.1517    21.4677 C       7      r7    -0.0007
  12478 C           24.2341    -3.1759    21.0470 C       5      r5     0.0012
  12479 C           24.7532    -4.1135    22.0104 C       5      r5     0.0008
  12480 C           24.8165    -5.5372    21.5174 C       7      r7    -0.0006
  12481 C           25.1239    -4.0191    23.3781 C       5      r5     0.0001
  12482 C           25.1588    -2.8448    24.1513 C       6      r6    -0.0002
  12483 C          -25.1698     0.4269    22.2833 C       0      r0     0.0005
  12484 C          -23.9363     0.4875    21.5144 C       0      r0     0.0007
  12485 C          -22.7965    -0.0004    22.3823 C       0      r0    -0.0000
  12486 C          -22.3910    -1.8340    20.8854 C       7      r7     0.0011
  12487 C          -22.4269     0.9060    23.3416 C       0      r0     0.0002
  12488 C          -22.4944    -1.4472    22.2872 C       5      r5     0.0000
  12489 C          -22.3509     1.9677    23.9665 C       0      r0     0.0004
  12490 C          -21.1444     1.8274    20.5682 C       0      r0     0.0010
  12491 C          -19.3972     1.6990    23.4190 C       6      r6    -0.0001
  12492 C          -19.1695     1.4498    24.8294 C       6      r6     0.0002
  12493 C          -19.0720     0.7291    22.3556 C       6      r6    -0.0003
  12494 C          -18.9035     1.0259    20.9062 C       0      r0     0.0002
  12495 C          -19.0273    -0.9002    24.2989 C       6      r6     0.0001
  12496 C          -18.8107    -0.6107    22.8674 C       6      r6    -0.0000
  12497 C          -18.2561    -1.7268    22.0739 C       6      r6    -0.0001
  12498 C          -15.2926     2.1419    22.9964 C       7      r7     0.0004
  12499 C          -14.7568     0.7962    22.9172 C       7      r7     0.0001
  12500 C          -14.1515     0.3472    24.2504 C       7      r7     0.0004
  12501 C          -14.0895     0.5615    21.6389 C       7      r7     0.0008
  12502 C          -13.0115     1.2379    24.6381 C       7      r7     0.0002
  12503 C          -12.6968     1.0126    21.6610 C       7      r7     0.0011
  12504 C          -12.1332     1.9836    22.6576 C       7      r7    -0.0002
  12505 C          -11.7141     0.6315    20.6867 C       5      r5    -0.0007
  12506 C          -10.4476     1.2182    21.3144 C       5      r5    -0.0018
  12507 C           -9.9765     0.9193   -24.9444 C       6      r6    -0.0009
  12508 C           -9.1622     1.2475    20.9477 C       0      r0     0.0002
  12509 C           -8.2235    -2.0577    21.3958 C       6      r6    -0.0009
  12510 C           -7.8212     1.3653    20.6928 C       6      r6    -0.0075
  12511 C           -6.9842     0.1801    20.8287 C       6      r6     0.0103
  12512 C           -5.8408     0.2510    21.6549 C       5      r5    -0.0424
  12513 C           -5.2977     1.4680    22.2280 C       5      r5     0.2418
  12514 C           -4.7896    -2.2868    21.5455 C       6      r6     0.0106
  12515 C           -4.7533    -0.7981    21.8697 C       5      r5    -0.0482
  12516 O           -4.0108     1.3875    22.9336 O       5      r5    -0.4926
  12517 C           -3.8611    -0.1418    22.5828 C       5      r5     0.2165
  12518 C           -2.6865    -0.9262    23.0111 C       6      r6    -0.0350
  12519 C           -1.5749     2.1692    24.8631 C       7      r7     0.0189
  12520 C           -1.6632    -0.5016    23.8565 C       0      r0     0.0344
  12521 C           -0.8000     1.6456    20.9057 C       5      r5     0.0052
  12522 C           -0.6203    -0.0639    24.7085 C       0      r0    -0.0043
  12523 C           -0.3604     1.4142    24.7756 C       7      r7     0.0013
  12524 C            0.9320    -1.0616    20.5922 C       0      r0    -0.0014
  12525 C            0.9528     2.0482    24.9275 C       7      r7    -0.0000
  12526 C            1.5340    -0.6064    21.9149 C       6      r6     0.0007
  12527 C            1.8600    -1.4692    23.0121 C       6      r6    -0.0016
  12528 C            2.1058    -0.7564    24.2368 C       6      r6     0.0002
  12529 C            2.4346     0.5390    21.9093 C       6      r6    -0.0001
  12530 C            2.9864     0.4497    24.3590 C       5      r5     0.0015
  12531 C            3.3235     0.9517    22.9421 C       6      r6     0.0004
  12532 C            4.1036     2.2283    22.8032 C       0      r0     0.0009
  12533 C            5.1903    -1.6492    21.1167 C       0      r0     0.0000
  12534 C            5.4015     2.2157    22.0642 C       7      r7     0.0018
  12535 C            5.8074    -0.3210    21.0259 C       0      r0    -0.0000
  12536 C            6.4372     1.3646    22.6527 C       7      r7     0.0019
  12537 C            6.7186     0.0572    22.1440 C       0      r0     0.0003
  12538 C            7.1117    -1.3750    24.2251 C       7      r7     0.0008
  12539 C            7.6255    -0.7911    22.9729 C       0      r0     0.0003
  12540 C            7.5246     1.9401    23.4981 C       7      r7     0.0004
  12541 C            7.7841     1.6308    24.8567 C       5      r5     0.0022
  12542 C            9.0716    -1.1108    22.6646 C       5      r5     0.0003
  12543 C            9.2026    -1.6651    21.3431 C       5      r5    -0.0009
  12544 C           10.2124    -0.1863    22.9917 C       5      r5    -0.0005
  12545 C           10.1861    -0.8904    20.6664 C       5      r5     0.0019
  12546 C           10.4209     0.2701    24.3246 C       0      r0    -0.0001
  12547 C           10.8768    -0.1296    21.6501 C       5      r5    -0.0007
  12548 C           11.8045     0.9332    21.2101 C       0      r0     0.0015
  12549 C           12.8756    -2.0273    24.2638 C       7      r7     0.0007
  12550 C           13.2041     1.1399    21.2602 C       6      r6    -0.0011
  12551 C           14.3366     0.2691    21.7125 C       6      r6    -0.0002
  12552 C           14.8309    -0.6156    20.7278 C       6      r6    -0.0037
  12553 C           14.9491    -0.6853    24.6377 C       6      r6    -0.0007
  12554 C           15.0809     0.7116    24.1457 C       6      r6    -0.0010
  12555 C           15.2873     0.8332    22.6943 C       0      r0    -0.0032
  12556 C           15.6372    -2.1378    22.5354 C       6      r6    -0.0009
  12557 C           15.9546    -1.4648    21.2785 C       6      r6    -0.0003
  12558 C           16.5613     1.4540    22.2345 C       6      r6    -0.0020
  12559 C           16.4789     2.0542    20.9058 C       6      r6    -0.0024
  12560 C           17.0634    -1.9400    20.4634 C       6      r6    -0.0015
  12561 C           16.8747    -2.3859    24.7717 C       7      r7     0.0004
  12562 C           17.8093     1.4956    23.0037 C       7      r7    -0.0011
  12563 C           17.8167     1.1775    24.4815 C       7      r7    -0.0015
  12564 C           18.8321     2.1274    20.8389 C       7      r7    -0.0010
  12565 C           20.1120    -0.0196    24.5878 C       6      r6    -0.0006
  12566 C           21.0401    -1.1403    20.4801 C       0      r0     0.0017
  12567 C           20.9846     1.1993    24.5006 C       6      r6    -0.0009
  12568 C           21.3609    -0.8766    21.7229 C       7      r7     0.0010
  12569 C           21.7373     0.6058    21.9148 C       7      r7     0.0007
  12570 C           21.6970     1.4352    23.1875 C       5      r5    -0.0010
  12571 C           22.5808    -1.7042    22.1789 C       7      r7     0.0003
  12572 C           22.9141    -1.9396    23.5342 C       0      r0     0.0002
  12573 C           22.9449     0.9202    21.1818 C       7      r7     0.0009
  12574 C           23.0423     1.8803    23.3222 C       5      r5     0.0011
  12575 C           23.6471    -1.8401    21.2214 C       7      r7     0.0006
  12576 C           23.9832     1.4434    22.0912 C       5      r5     0.0008
  12577 C           24.4065    -1.6128    23.7783 C       0      r0     0.0006
  12578 C           24.9589    -0.6522    23.0092 C       0      r0     0.0003
  12579 C          -24.9363     5.3394    20.6451 C       0      r0     0.0002
  12580 C          -24.6963     5.7907    23.7661 C       5      r5     0.0008
  12581 C          -23.6895     5.3227    21.4090 C       5      r5    -0.0005
  12582 C          -23.7369     5.0575    22.8878 C       5      r5     0.0006
  12583 C          -22.7182     4.0658    23.1226 C       5      r5     0.0004
  12584 C          -22.3528     4.9939    20.9187 C       5      r5     0.0000
  12585 C          -22.4158     3.3221    24.3530 C       0      r0     0.0002
  12586 C          -21.9980     3.9321    21.7728 C       5      r5    -0.0003
  12587 C          -20.8929     2.9575    21.4009 C       0      r0    -0.0001
  12588 C          -19.6033     3.5848    21.7880 C       0      r0     0.0001
  12589 C          -19.4533     6.2540    23.4832 C       5      r5     0.0004
  12590 C          -19.4067     4.9819    21.3530 C       6      r6    -0.0002
  12591 C          -18.9805     5.9443    22.2721 C       6      r6     0.0008
  12592 C          -18.9364     3.0293    22.8973 C       6      r6    -0.0001
  12593 C          -18.5985     6.3475    24.6560 C       5      r5    -0.0002
  12594 C          -17.6519     6.3524    22.0988 C       5      r5     0.0009
  12595 C          -17.5154     3.2779    23.2934 C       7      r7     0.0006
  12596 C          -17.3307     3.1805    24.7004 C       7      r7     0.0001
  12597 C          -17.2091     6.5983    24.5106 C       7      r7     0.0004
  12598 C          -16.8953     5.8563    20.9423 C       5      r5    -0.0006
  12599 C          -16.7761     2.2807    21.0051 C       0      r0     0.0006
  12600 C          -16.7691     6.5952    23.1750 C       7      r7     0.0005
  12601 C          -16.5913     2.5552    22.4764 C       7      r7     0.0003
  12602 C          -15.5669     5.7533    21.4067 C       5      r5    -0.0013
  12603 C          -15.4211     6.3525    22.6751 C       7      r7     0.0003
  12604 C          -14.7727     3.4194    25.0131 C       7      r7     0.0001
  12605 C          -14.6131     4.8311    21.1609 C       5      r5    -0.0005
  12606 C          -14.3314     3.0041    23.7070 C       7      r7     0.0009
  12607 C          -14.1174     6.4869    23.2055 C       7      r7    -0.0001
  12608 C          -13.3007     5.3168    21.2576 C       5      r5    -0.0006
  12609 C          -13.0176     6.2113    22.3468 C       7      r7    -0.0008
  12610 C          -12.9940     2.4538    23.7776 C       7      r7     0.0008
  12611 C          -11.4220     6.8902    24.8579 C       7      r7     0.0005
  12612 C          -10.7399     2.0569    22.5668 C       5      r5    -0.0012
  12613 C           -9.7004     2.7730    23.3454 C       7      r7    -0.0004
  12614 C           -9.3844     2.1989    24.6594 C       7      r7    -0.0009
  12615 C           -8.9912     4.0288    22.9225 C       7      r7    -0.0020
  12616 C           -8.9120     6.0073    21.2143 C       7      r7    -0.0015
  12617 C           -8.8073     4.5801    21.5260 C       7      r7    -0.0014
  12618 C           -7.9764     5.0501    24.9854 C       7      r7    -0.0006
  12619 C           -8.0314     4.8758    23.5327 C       7      r7     0.0013
  12620 C           -7.8005     3.9013    20.7543 C       6      r6    -0.0006
  12621 C           -7.1726     2.6733    21.2106 C       6      r6     0.0022
  12622 C           -6.6532     6.5708    22.2867 C       7      r7    -0.0010
  12623 C           -6.7507     5.1528    22.7509 C       7      r7    -0.0065
  12624 C           -6.0690     2.7004    22.0702 C       6      r6    -0.0381
  12625 C           -5.7362     4.1578    22.4367 C       6      r6     0.0266
  12626 C           -4.5493     4.7949    21.8877 C       6      r6     0.0101
  12627 C           -4.3001     6.1838    22.3591 C       6      r6    -0.0017
  12628 C           -3.8208     4.9812    24.5873 C       7      r7     0.0053
  12629 C           -3.5062     6.0618    23.5940 C       7      r7     0.0036
  12630 C           -3.0458     3.8172    24.9664 C       7      r7     0.0165
  12631 C           -2.2434     6.7455    23.6664 C       7      r7     0.0004
  12632 C           -1.9596     2.5327    20.7964 C       7      r7     0.0308
  12633 C           -1.7480     3.5531    24.4751 C       7      r7     0.0104
  12634 C           -1.0240     5.9372    24.0511 C       7      r7    -0.0010
  12635 C           -0.9056     4.5042    23.7410 C       7      r7     0.0037
  12636 C            0.0539     6.5152    24.7715 C       7      r7     0.0008
  12637 C            0.4592     4.0940    23.4412 C       7      r7     0.0035
  12638 C            0.8094     3.5337    24.7663 C       7      r7    -0.0014
  12639 C            1.0836     5.9065    21.9784 C       0      r0    -0.0009
  12640 C            1.5011     4.9602    22.8722 C       0      r0    -0.0002
  12641 C            3.0858     4.7218    22.9341 C       0      r0    -0.0018
  12642 C            3.5484     3.5015    22.8771 C       0      r0     0.0004
  12643 C            3.9807     6.8241    24.2050 C       6      r6    -0.0009
  12644 C            4.1051     5.8524    23.0801 C       6      r6    -0.0013
  12645 C            5.1460     6.1701    22.1101 C       5      r5    -0.0004
  12646 C            5.8801     3.4139    21.4076 C       7      r7     0.0005
  12647 C            6.5341     5.6885    21.8286 C       7      r7    -0.0014
  12648 C            6.8648     4.2904    22.0614 C       7      r7     0.0003
  12649 C            7.0485     6.2374    20.5419 C       7      r7    -0.0005
  12650 C            8.3052     3.8117    21.9754 C       7      r7    -0.0002
  12651 C            8.5181     2.8879    23.0841 C       7      r7     0.0001
  12652 C            9.3047     3.9407    20.9842 C       7      r7    -0.0001
  12653 C            9.4109     3.0943    24.2162 C       7      r7    -0.0005
  12654 C           10.2089     4.1485    24.4074 C       7      r7    -0.0014
  12655 C           10.5854     3.2543    21.4042 C       0      r0    -0.0003
  12656 C           10.9116     4.6960    23.3483 C       7      r7    -0.0022
  12657 C           10.7535     6.0404    23.0059 C       7      r7    -0.0021
  12658 C           11.5293     3.9669    22.2274 C       5      r5    -0.0025
  12659 C           11.7753     6.2760    22.1031 C       5      r5    -0.0017
  12660 C           12.3442     5.0469    21.5950 C       5      r5    -0.0027
  12661 C           13.4445     5.1639    20.6744 C       6      r6    -0.0017
  12662 C           14.0360     6.5196    20.5386 C       6      r6    -0.0031
  12663 C           14.5309     6.3706    24.5085 C       7      r7    -0.0009
  12664 C           15.3796     5.3977    23.8074 C       7      r7     0.0059
  12665 C           15.6176     4.0094    24.3080 C       7      r7     0.0099
  12666 C           15.7387     3.2293    20.4728 C       0      r0    -0.0013
  12667 C           16.3349     4.5924    20.5128 C       6      r6    -0.0018
  12668 C           16.3030     6.0167    22.8483 C       7      r7    -0.0000
  12669 C           16.7539     5.5779    21.5072 C       5      r5    -0.0008
  12670 C           16.8996     3.4330    24.5335 C       7      r7     0.0114
  12671 C           18.1534     4.0967    24.1349 C       7      r7    -0.0029
  12672 C           18.6847     2.4205    22.3189 C       7      r7    -0.0013
  12673 C           18.8236     3.7413    22.9128 C       7      r7     0.0003
  12674 C           19.4265     6.0948    24.6748 C       7      r7    -0.0010
  12675 C           19.8896     4.6035    22.6711 C       7      r7    -0.0006
  12676 C           20.1532     5.6196    23.5887 C       7      r7    -0.0009
  12677 C           20.8730     4.6442    21.6359 C       7      r7    -0.0011
  12678 C           21.5652     5.8155    23.4394 C       7      r7    -0.0006
  12679 C           21.9717     5.4343    22.0822 C       5      r5    -0.0003
  12680 C           22.2825     6.6912    24.3585 C       7      r7    -0.0017
  12681 C           23.2107     6.0637    21.5429 C       0      r0     0.0003
  12682 C           23.3110     2.8926    24.2806 C       6      r6    -0.0012
  12683 C           23.6262     6.3964    24.7523 C       5      r5    -0.0023
  12684 C           24.1676     4.0084    23.7833 C       6      r6    -0.0001
  12685 C           24.5000     3.9991    22.3786 C       6      r6     0.0013
  12686 C           24.4358     5.2362    21.6004 C       0      r0    -0.0000
  12687 C           24.3470     2.8407    21.4799 C       6      r6     0.0002
  12688 C           24.5355     5.2695    24.3762 C       5      r5    -0.0004
  12689 C          -24.9907     7.2007    23.6103 C       5      r5     0.0014
  12690 C          -24.8845     8.0009    22.3793 C       7      r7     0.0006
  12691 C          -23.7542     8.8472    22.8033 C       7      r7     0.0005
  12692 C          -23.1927     9.7767    21.8502 C       7      r7     0.0005
  12693 C          -22.7479     8.2056    23.6979 C       7      r7     0.0001
  12694 C          -22.4640    10.8541    22.4402 C       5      r5    -0.0009
  12695 C          -21.7626     7.4169    23.0833 C       7      r7     0.0002
  12696 C          -21.5510     7.6207    21.6121 C       7      r7     0.0001
  12697 C          -21.5956    11.3010    21.3558 C       5      r5    -0.0001
  12698 C          -20.6671     6.8681    23.8732 C       5      r5     0.0000
  12699 C          -20.1968     7.9219    21.1753 C       7      r7     0.0008
  12700 C          -19.4148     9.1634    21.6381 C       5      r5    -0.0001
  12701 C          -18.6012     9.5844    22.8225 C       6      r6    -0.0012
  12702 C          -18.7210     9.3737    20.4000 C       5      r5     0.0011
  12703 C          -17.3847    10.4120    22.8009 C       6      r6    -0.0011
  12704 C          -16.9468    10.7422    21.4013 C       7      r7    -0.0006
  12705 C          -16.5044    11.0031    23.8402 C       7      r7     0.0005
  12706 C          -13.9997     7.0736    24.6165 C       7      r7     0.0002
  12707 C          -11.8211     7.0908    22.3079 C       7      r7    -0.0005
  12708 C          -11.8956    11.1325    24.4755 C       0      r0    -0.0011
  12709 C          -11.7286     8.3757    21.5827 C       5      r5    -0.0021
  12710 C          -10.9944     7.2525    23.4773 C       7      r7    -0.0009
  12711 C          -10.9658     9.3578    22.2958 C       5      r5     0.0002
  12712 C          -10.4718    10.5985    21.7267 C       0      r0     0.0009
  12713 C          -10.4153     8.5924    23.4474 C       7      r7     0.0003
  12714 C          -10.0137     9.2813    24.6547 C       7      r7    -0.0011
  12715 C           -8.1398    10.9716    22.3335 C       6      r6    -0.0034
  12716 C           -8.1322     9.5869    22.0568 C       0      r0    -0.0011
  12717 C           -8.0981     8.4380    21.8919 C       0      r0    -0.0028
  12718 C           -7.9776     7.0266    21.8328 C       7      r7    -0.0023
  12719 C           -6.0780    11.1827    23.9445 C       5      r5     0.0001
  12720 C           -5.3284     7.2222    21.9889 C       6      r6    -0.0021
  12721 C           -5.0296     8.5546    21.5479 C       0      r0    -0.0022
  12722 C           -5.0382    10.3621    23.4520 C       6      r6    -0.0008
  12723 C           -4.5924     9.7625    21.0629 C       0      r0    -0.0011
  12724 C           -4.4306     9.7582    24.6251 C       6      r6     0.0004
  12725 C           -4.3043    10.6780    22.1076 C       0      r0    -0.0014
  12726 C           -3.0713     8.9984    24.6562 C       7      r7    -0.0017
  12727 C           -2.3365     8.1689    23.4648 C       7      r7    -0.0003
  12728 C           -2.1427    11.0298    22.8200 C       7      r7    -0.0002
  12729 C           -1.7870    10.1846    20.4238 C       7      r7     0.0010
  12730 C           -1.6890    11.0278    24.2989 C       7      r7     0.0027
  12731 C           -1.7168    10.0373    21.9162 C       7      r7     0.0005
  12732 C           -1.2776     8.8130    22.7572 C       7      r7     0.0002
  12733 C           -0.0335     8.7300    23.4950 C       7      r7     0.0006
  12734 C            0.2463     7.9499    24.7607 C       7      r7    -0.0003
  12735 C            0.6972     6.8082    21.1397 C       6      r6    -0.0008
  12736 C            1.0071     8.9705    22.4799 C       7      r7    -0.0003
  12737 C            1.0588     8.2514    21.1930 C       7      r7    -0.0010
  12738 C            1.6603    10.2816    22.5925 C       7      r7     0.0001
  12739 C            2.6694    10.4504    23.5469 C       6      r6     0.0011
  12740 C            3.2862     9.3684    24.4292 C       0      r0    -0.0004
  12741 C            4.0848     8.2526    23.8468 C       6      r6    -0.0028
  12742 C            4.8840     8.5811    22.6170 C       6      r6    -0.0029
  12743 C            5.0937    11.0808    22.0486 C       7      r7     0.0018
  12744 C            5.3126     7.5527    21.7236 C       5      r5    -0.0010
  12745 C            5.4657    10.9793    24.5796 C       5      r5     0.0050
  12746 C            5.7253     9.7328    22.2722 C       6      r6    -0.0021
  12747 C            6.2978     7.7185    20.5345 C       5      r5    -0.0012
  12748 C            6.4660     9.9532    24.8659 C       5      r5     0.0339
  12749 C            7.1320     9.6096    21.8703 C       6      r6    -0.0025
  12750 C            7.3716     8.7479    20.7333 C       6      r6    -0.0013
  12751 C            7.4442     9.1645    24.2160 C       7      r7     0.0339
  12752 C            8.0531     9.5841    23.0169 C       7      r7     0.0056
  12753 C            7.9890     8.0608    24.8447 C       7      r7     0.0091
  12754 C            9.0115     7.0970    24.4915 C       7      r7    -0.0004
  12755 C            9.4640     9.4315    23.0571 C       7      r7     0.0370
  12756 C            9.8474    11.2185    24.7932 C       5      r5     0.2086
  12757 C            9.9337     7.1209    23.4038 C       7      r7     0.0030
  12758 C           10.2232    10.4564    23.6601 C       5      r5    -0.0868
  12759 C           10.2313     8.3670    22.7599 C       7      r7    -0.0127
  12760 C           11.6291     8.6415    22.5141 C       6      r6     0.0074
  12761 C           11.5310    10.9607    23.2360 C       5      r5     0.2520
  12762 C           12.2203     7.5503    21.8391 C       6      r6    -0.0020
  12763 C           12.3196     9.9140    22.7419 C       6      r6    -0.0465
  12764 C           13.6602     7.3808    21.6826 C       6      r6    -0.0006
  12765 C           13.7825     9.6915    22.6688 C       7      r7     0.0195
  12766 C           14.2033     8.2670    22.7139 C       7      r7    -0.0089
  12767 C           14.5122     7.7890    24.0670 C       7      r7     0.0012
  12768 C           14.7273    10.7842    22.7840 C       7      r7     0.0190
  12769 C           15.1492    10.6907    20.5265 C       0      r0     0.0037
  12770 C           15.0287    11.2329    24.1434 C       7      r7     0.0251
  12771 C           15.4449     8.7190    24.7138 C       7      r7    -0.0018
  12772 C           15.7137    11.1306    21.7279 C       7      r7     0.0068
  12773 C           16.7365     8.3198    24.2697 C       7      r7     0.0033
  12774 C           16.9344     7.2412    23.2866 C       7      r7     0.0020
  12775 C           17.6191     6.6795    21.1500 C       5      r5     0.0006
  12776 C           17.8832     7.4735    22.2715 C       5      r5    -0.0024
  12777 C           17.8735     9.2639    24.3965 C       7      r7    -0.0011
  12778 C           18.1194    10.9084    20.9131 C       5      r5    -0.0023
  12779 C           18.2462     9.4707    20.9953 C       5      r5    -0.0022
  12780 C           18.5348     8.6939    22.1604 C       6      r6    -0.0021
  12781 C           18.8384     9.2537    23.4170 C       5      r5    -0.0019
  12782 C           19.4225    10.9048    24.9180 C       5      r5    -0.0024
  12783 C           19.8508    10.2601    23.7132 C       5      r5    -0.0022
  12784 C           21.2043    10.2049    23.2283 C       0      r0     0.0000
  12785 C           21.7362     8.0547    24.4680 C       7      r7     0.0005
  12786 C           21.7013     8.8362    23.1916 C       0      r0     0.0013
  12787 C           21.8478    11.3129    22.4755 C       0      r0     0.0002
  12788 C           22.0934     8.2386    21.8971 C       7      r7     0.0002
  12789 C           23.3544     7.4755    21.7349 C       7      r7     0.0005
  12790 C           24.4649     7.6058    24.5908 C       5      r5     0.0015
  12791 C           24.6049     8.2705    21.3791 C       7      r7    -0.0003
  12792 C          -25.1803    14.4619    21.5387 C       6      r6     0.0007
  12793 C          -24.8591    14.9057    22.8864 C       6      r6    -0.0000
  12794 C          -24.3754    13.5904    23.6002 C       5      r5    -0.0006
  12795 C          -24.1033    11.3077    24.4564 C       5      r5    -0.0005
  12796 C          -24.1717    13.8519    20.7279 C       6      r6     0.0007
  12797 C          -22.9550    11.6498    23.6143 C       5      r5    -0.0010
  12798 C          -23.0683    13.0975    23.4852 C       5      r5    -0.0011
  12799 C          -22.9401    14.5703    20.7045 C       6      r6     0.0002
  12800 C          -22.8041    15.7916    21.5054 C       6      r6    -0.0001
  12801 C          -22.3692    15.3858    23.9224 C       6      r6    -0.0011
  12802 C          -21.9192    14.0355    23.8096 C       6      r6     0.0007
  12803 C          -20.6710    13.4781    24.3544 C       5      r5    -0.0062
  12804 C          -20.3551    12.0919    21.1476 C       5      r5    -0.0002
  12805 C          -19.5807    12.9820    22.0392 C       6      r6    -0.0011
  12806 C          -19.5246    12.9698    23.5545 C       5      r5    -0.0010
  12807 C          -18.8843    13.9341    21.1628 C       5      r5    -0.0004
  12808 C          -18.5132    12.5389    24.5090 C       5      r5     0.0114
  12809 C          -18.3644    15.3283    21.2007 C       5      r5    -0.0007
  12810 C          -17.2275    11.9247    24.7123 C       7      r7    -0.0065
  12811 C          -16.1905    11.9191    21.1830 C       7      r7    -0.0006
  12812 C          -15.8938    15.0408    23.6460 C       5      r5    -0.0007
  12813 C          -15.8040    12.6453    22.4235 C       6      r6    -0.0006
  12814 C          -15.6412    14.0948    22.5343 C       6      r6    -0.0003
  12815 C          -15.2850    11.5912    23.3311 C       7      r7    -0.0013
  12816 C          -14.8544    15.4213    20.5129 C       7      r7     0.0006
  12817 C          -14.6914    14.2924    21.4435 C       6      r6     0.0004
  12818 C          -14.1639    13.2972    24.7971 C       7      r7    -0.0007
  12819 C          -14.1671    13.0417    20.7803 C       6      r6    -0.0002
  12820 C          -14.0283    12.0819    24.0232 C       7      r7    -0.0002
  12821 C          -13.2666    14.4586    24.6111 C       6      r6    -0.0005
  12822 C          -12.7738    12.6861    20.8689 C       6      r6    -0.0003
  12823 C          -12.5829    11.8449    23.6535 C       6      r6    -0.0002
  12824 C          -11.8986    13.6093    21.6866 C       0      r0     0.0003
  12825 C          -11.9092    14.0846    24.2094 C       6      r6     0.0000
  12826 C          -11.5771    13.0626    23.0830 C       6      r6    -0.0002
  12827 C          -11.3088    14.7719    21.0991 C       6      r6    -0.0001
  12828 C          -10.0824    12.5713    23.1709 C       6      r6    -0.0024
  12829 C           -9.8417    15.2302    21.3714 C       6      r6    -0.0020
  12830 C           -9.5008    11.4838    22.4079 C       6      r6    -0.0025
  12831 C           -9.2851    15.7867    22.4960 C       0      r0     0.0020
  12832 C           -9.1788    13.0942    24.0853 C       6      r6     0.0009
  12833 C           -7.7818    12.6991    24.1042 C       5      r5     0.0024
  12834 C           -7.2400    11.7052    23.2358 C       5      r5    -0.0020
  12835 C           -6.6001    15.1290    20.4815 C       7      r7     0.0005
  12836 C           -5.2348    14.5968    20.5184 C       7      r7    -0.0015
  12837 C           -4.1806    15.1573    21.3873 C       7      r7     0.0015
  12838 C           -3.3355    11.7670    22.3064 C       7      r7     0.0027
  12839 C           -3.0427    14.3154    21.8286 C       7      r7     0.0013
  12840 C           -2.9342    12.9064    21.4557 C       7      r7    -0.0018
  12841 C           -2.0214    14.8846    22.7786 C       7      r7     0.0039
  12842 C           -0.8569    14.0211    22.8332 C       7      r7    -0.0009
  12843 C           -0.7858    13.4400    24.1733 C       7      r7     0.0027
  12844 C           -0.8134    12.0781    24.8229 C       5      r5    -0.0002
  12845 C            0.2882    13.8896    20.4532 C       5      r5     0.0005
  12846 C            0.4854    13.9892    21.9691 C       7      r7     0.0003
  12847 C            1.1513    11.5008    21.8214 C       7      r7     0.0008
  12848 C            1.3087    15.4359    22.2655 C       7      r7    -0.0011
  12849 C            1.3616    12.7921    22.4494 C       7      r7     0.0001
  12850 C            2.5592    15.8771    21.8039 C       7      r7    -0.0001
  12851 C            2.7620    12.8970    22.7649 C       7      r7    -0.0002
  12852 C            3.3658    11.7632    23.4624 C       7      r7    -0.0001
  12853 C            3.7104    14.9993    21.5583 C       7      r7    -0.0015
  12854 C            3.5783    13.5223    21.6916 C       7      r7    -0.0005
  12855 C            4.0193    12.7285    20.5574 C       7      r7     0.0008
  12856 C            4.5082    11.3808    20.7408 C       7      r7     0.0001
  12857 C            4.8330    11.5792    23.3656 C       7      r7     0.0030
  12858 C            4.9867    15.7259    21.7231 C       5      r5    -0.0006
  12859 C            6.2763    15.0856    21.9157 C       5      r5    -0.0017
  12860 C            6.6867    15.5312    23.2186 C       7      r7    -0.0021
  12861 C            7.0053    14.1391    21.0813 C       7      r7    -0.0027
  12862 C            8.0592    15.2043    23.7396 C       7      r7     0.0037
  12863 C            8.3433    13.9284    21.4571 C       7      r7     0.0021
  12864 C            8.4882    15.7181   -25.0334 C       7      r7     0.0021
  12865 C            8.8147    14.7902    22.5538 C       5      r5    -0.0007
  12866 C            9.4189    13.3323    20.7303 C       7      r7    -0.0105
  12867 C           10.2629    14.8817    22.2774 C       5      r5     0.0008
  12868 C           10.5648    13.7277    21.4798 C       5      r5     0.0482
  12869 C           11.8378    13.5896    20.9247 C       5      r5    -0.0463
  12870 C           11.8400    15.3639    23.8121 C       6      r6    -0.0450
  12871 O           11.9577    12.2491    23.7817 O       5      r5    -0.4723
  12872 C           13.0825    14.7617    23.7153 C       6      r6     0.2811
  12873 C           13.1945    14.0126    21.1711 C       5      r5     0.2863
  12874 C           13.5219    14.1711    24.8969 C       6      r6    -0.0146
  12875 O           13.8229    14.5846    22.3792 O       0      r0    -0.5123
  12876 C           14.9499    13.7369    24.8507 C       5      r5     0.0428
  12877 C           15.6462    12.5678    24.3286 C       7      r7     0.0137
  12878 C           16.1423    15.0009    20.4291 C       7      r7     0.0159
  12879 C           16.9543    13.0193    23.8756 C       7      r7     0.0050
  12880 C           17.0682    14.3442    24.4745 C       7      r7     0.0078
  12881 C           17.2040    11.5716    21.8007 C       7      r7     0.0039
  12882 C           17.4468    14.4127    20.4874 C       7      r7    -0.0009
  12883 C           17.7855    12.4273    22.7925 C       7      r7     0.0028
  12884 C           18.0779    15.6317    22.5697 C       7      r7     0.0035
  12885 C           18.2048    15.2090    23.9988 C       7      r7     0.0005
  12886 C           18.2566    14.5083    21.6830 C       7      r7     0.0033
  12887 C           18.9245    13.2837    22.2902 C       7      r7    -0.0012
  12888 C           19.4248    15.2921    24.6882 C       6      r6    -0.0035
  12889 C           20.2810    13.2486    21.8497 C       6      r6    -0.0016
  12890 C           20.6889    14.5629    21.2129 C       5      r5    -0.0006
  12891 C           21.1476    12.1158    21.4069 C       6      r6    -0.0003
  12892 C           23.0704    11.7760    22.9797 C       0      r0     0.0018
  12893 C           24.0902    12.0636    23.4383 C       0      r0     0.0017
  12894 C           24.2913    15.0637    20.7045 C       7      r7    -0.0001
  12895 C           24.4849    15.7373    23.4247 C       5      r5     0.0006
  12896 C          -25.0609    12.3580    23.9419 C       5      r5    -0.0003
  12897 C          -25.1112    19.0581    21.8229 C       7      r7     0.0006
  12898 C          -23.8597    18.6195    22.4509 C       6      r6     0.0008
  12899 C          -23.7125    17.4236    23.3157 C       6      r6    -0.0004
  12900 C          -23.8292    17.9104    24.6589 C       5      r5    -0.0004
  12901 C          -23.3781    15.9209    22.9474 C       6      r6    -0.0007
  12902 C          -22.5624    20.1225    24.2189 C       6      r6     0.0002
  12903 C          -22.5654    19.5354    22.6800 C       6      r6     0.0004
  12904 C          -21.9546    16.8328    20.9701 C       6      r6     0.0008
  12905 C          -21.3551    16.2043    24.6471 C       5      r5    -0.0009
  12906 C          -21.2827    18.6626    22.6407 C       7      r7    -0.0002
  12907 C          -21.1530    17.3493    22.1208 C       7      r7    -0.0001
  12908 C          -20.1120    16.4419    22.6088 C       7      r7    -0.0012
  12909 C          -20.0665    16.2745    23.9943 C       5      r5    -0.0000
  12910 C          -19.9609    19.2711    22.6331 C       7      r7     0.0002
  12911 C          -18.9409    16.6965    24.8452 C       5      r5     0.0004
  12912 C          -18.9463    16.4438    21.9126 C       7      r7    -0.0003
  12913 C          -18.6168    18.8653    22.5994 C       7      r7    -0.0004
  12914 C          -18.1524    17.6016    22.1672 C       7      r7    -0.0001
  12915 C          -17.4705    16.5405    24.7822 C       5      r5     0.0002
  12916 C          -17.6297    19.8554    22.4010 C       5      r5     0.0005
  12917 C          -16.7500    16.2341    23.5176 C       5      r5    -0.0013
  12918 C          -16.7217    17.2451    22.4190 C       6      r6    -0.0011
  12919 C          -16.2244    19.5930    22.0105 C       5      r5     0.0011
  12920 C          -15.7472    18.2264    21.9996 C       5      r5     0.0005
  12921 C          -15.4115    20.2575    20.9862 C       5      r5     0.0006
  12922 C          -14.9371    17.8983    20.7255 C       5      r5     0.0002
  12923 C          -14.0882    16.6441    20.6734 C       7      r7     0.0019
  12924 C          -11.6031    20.0967    22.3919 C       5      r5     0.0010
  12925 C          -10.8864    19.0043    21.9714 C       5      r5     0.0001
  12926 C          -10.8311    18.6228    20.5304 C       6      r6     0.0007
  12927 C          -10.0432    19.8893    24.0104 C       7      r7    -0.0033
  12928 C           -9.8790    19.0120    22.8594 C       7      r7    -0.0017
  12929 C           -8.7261    16.2792    23.5429 C       0      r0     0.0008
  12930 C           -8.6263    18.6877    22.3030 C       7      r7    -0.0027
  12931 C           -8.4018    18.8922    20.9171 C       7      r7     0.0008
  12932 C           -8.0628    16.9499    24.6191 C       5      r5     0.0054
  12933 C           -7.5422    18.2987    24.4076 C       7      r7     0.0068
  12934 C           -7.3908    18.6995    22.9925 C       7      r7    -0.0010
  12935 C           -6.9673    19.0271    20.7680 C       7      r7    -0.0029
  12936 C           -6.3807    18.4392    21.9591 C       5      r5    -0.0005
  12937 C           -5.7866    17.1272    21.5105 C       6      r6     0.0017
  12938 C           -4.4829    16.5554    21.7069 C       7      r7     0.0034
  12939 C           -3.3655    17.4886    21.9432 C       7      r7     0.0000
  12940 C           -3.2104    18.9148    21.5996 C       7      r7    -0.0024
  12941 C           -2.5960    17.2491    23.1540 C       7      r7     0.0039
  12942 C           -2.3929    19.5522    22.6291 C       7      r7    -0.0019
  12943 C           -2.3985    18.6082    23.7455 C       5      r5     0.0031
  12944 C           -1.8438    16.1050    23.5169 C       7      r7     0.0040
  12945 C           -1.4947    18.6649    24.9267 C       6      r6    -0.0022
  12946 C           -0.4408    16.4313    24.0664 C       7      r7    -0.0019
  12947 C           -0.1396    17.9852    24.6411 C       7      r7    -0.0034
  12948 C            0.6378    16.4909    22.9588 C       7      r7    -0.0023
  12949 C            0.7543    18.6334    23.5185 C       7      r7    -0.0041
  12950 C            0.9010    20.0480    23.5782 C       7      r7    -0.0033
  12951 C            1.3218    17.7170    22.5996 C       5      r5    -0.0026
  12952 C            2.6602    17.4388    21.8774 C       5      r5     0.0007
  12953 C            3.3647    20.0465    24.1913 C       7      r7     0.0110
  12954 C            3.8020    17.8128    22.8478 C       6      r6     0.0005
  12955 C            4.0309    18.7179    23.9149 C       5      r5     0.0100
  12956 C            4.9107    18.2692   -25.0294 C       7      r7     0.0257
  12957 C            4.8403    16.7747    22.7343 C       5      r5     0.0032
  12958 C            5.7825    17.1164   -24.9630 C       7      r7     0.0039
  12959 C            5.8895    16.5777    23.7524 C       7      r7     0.0026
  12960 C            8.9518    18.9137    24.2322 C       6      r6     0.0213
  12961 C            9.3004    20.4095    24.1892 C       7      r7     0.0173
  12962 C            9.8805    17.9340    24.7977 C       6      r6    -0.0068
  12963 C           11.2603    15.9647    22.4941 C       0      r0     0.0241
  12964 C           11.6896    17.1162    21.8077 C       5      r5     0.0023
  12965 C           12.2639    19.3696    21.8234 C       5      r5    -0.0029
  12966 C           12.1655    18.9251    20.4363 C       7      r7    -0.0018
  12967 C           12.2194    18.1604    22.6792 C       5      r5     0.0022
  12968 C           12.8656    17.9483    24.0060 C       5      r5    -0.0011
  12969 C           14.2622    17.7561    24.2859 C       5      r5     0.0106
  12970 C           14.9910    17.2160    21.3201 C       5      r5     0.0248
  12971 C           15.0961    18.8042    23.6511 C       7      r7     0.0005
  12972 C           15.3062    19.3879    21.0033 C       7      r7    -0.0016
  12973 C           15.5037    18.4431    22.1519 C       7      r7    -0.0023
  12974 C           15.7849    19.8238    24.4231 C       7      r7    -0.0010
  12975 C           15.9981    16.1383    21.3654 C       5      r5     0.0364
  12976 C           17.0701    16.5725    22.1618 C       5      r5    -0.0037
  12977 C           17.1485    18.1062    22.3310 C       7      r7    -0.0010
  12978 C           18.1552    18.3134    23.4506 C       7      r7    -0.0000
  12979 C           17.9830    18.7724    21.2018 C       7      r7    -0.0016
  12980 C           18.1960    18.7635    24.7505 C       7      r7    -0.0003
  12981 C           19.4000    18.4055    22.9264 C       5      r5    -0.0008
  12982 C           19.2683    18.9401    21.7459 C       7      r7     0.0002
  12983 C           19.5729    19.1984    25.0221 C       7      r7    -0.0001
  12984 C           20.2648    19.0184    23.8270 C       5      r5    -0.0007
  12985 C           20.4850    16.2032    24.1688 C       5      r5    -0.0002
  12986 C           20.6401    15.9745    21.4624 C       5      r5    -0.0011
  12987 C           20.5412    19.4271    21.1936 C       7      r7    -0.0005
  12988 C           21.0562    16.3973    22.8264 C       5      r5    -0.0004
  12989 C           21.3627    19.7812    23.4198 C       6      r6    -0.0006
  12990 C           21.6282    19.7385    22.1235 C       5      r5     0.0009
  12991 C           22.3424    16.9217    23.1623 C       5      r5    -0.0009
  12992 C           22.3734    20.0345    24.3669 C       6      r6    -0.0000
  12993 C           22.5658    18.2962    20.7183 C       7      r7     0.0011
  12994 C           22.8287    17.0724    24.5255 C       5      r5     0.0014
  12995 C           22.9028    19.2933    21.6846 C       7      r7     0.0014
  12996 C           23.5941    16.3994    22.5822 C       5      r5     0.0007
  12997 C           23.4197    17.2919    20.4806 C       7      r7     0.0005
  12998 C           23.6540    16.1431    21.2186 C       7      r7    -0.0001
  12999 C           23.7806    20.0555    23.8375 C       6      r6    -0.0000
  13000 C           24.0243    16.2208    24.6996 C       5      r5     0.0007
  13001 C           24.1043    19.5387    22.5046 C       7      r7     0.0005
  13002 C          -24.9981    22.4559    23.0817 C       7      r7     0.0001
  13003 C          -23.6934    22.6437    22.4144 C       7      r7    -0.0004
  13004 C          -23.2853    21.6554    21.3701 C       7      r7    -0.0002
  13005 C          -22.6043    23.3499    23.0395 C       5      r5    -0.0009
  13006 C          -22.2785    20.6645    21.7122 C       6      r6     0.0001
  13007 C          -22.0727    21.3244    24.8022 C       7      r7     0.0011
  13008 C          -21.9340    24.7726    22.6118 C       5      r5    -0.0008
  13009 C          -21.8856    22.6512    24.0878 C       7      r7     0.0006
  13010 C          -20.9548    21.2305    21.4102 C       6      r6    -0.0012
  13011 C          -20.8177    23.6019    24.3436 C       7      r7     0.0002
  13012 C          -20.5988    22.2023    20.4074 C       7      r7     0.0005
  13013 C          -20.6373    24.6759    23.4207 C       5      r5    -0.0012
  13014 C          -19.8025    20.5311    22.0339 C       5      r5    -0.0001
  13015 C          -19.2483    22.7791    20.6844 C       7      r7     0.0006
  13016 C          -18.8986    24.0846    21.0095 C       7      r7    -0.0006
  13017 C          -18.8695    24.5421    25.0083 C       5      r5     0.0007
  13018 C          -18.4322    20.8966    21.9713 C       5      r5    -0.0000
  13019 C          -18.1821    22.0426    21.2681 C       5      r5    -0.0011
  13020 C          -17.5647    24.1860    21.5812 C       7      r7    -0.0008
  13021 C          -17.1118    22.8559    21.4151 C       7      r7    -0.0001
  13022 C          -15.9340    22.6294    20.8459 C       7      r7    -0.0008
  13023 C          -15.6129    24.8391    22.9327 C       7      r7    -0.0004
  13024 C          -14.7826    23.1663    21.3684 C       7      r7    -0.0006
  13025 C          -14.6252    23.8717    22.5607 C       7      r7     0.0008
  13026 C          -13.4794    23.5761    23.4438 C       6      r6     0.0016
  13027 C          -13.5820    22.7180    20.8375 C       6      r6     0.0004
  13028 C          -13.4125    24.0425    24.7831 C       6      r6    -0.0002
  13029 C          -12.8037    21.9450    21.7416 C       6      r6     0.0015
  13030 C          -12.5969    22.5243    23.0742 C       6      r6     0.0008
  13031 C          -12.3731    20.7123    21.4379 C       6      r6     0.0007
  13032 C          -11.7684    21.9233    24.0696 C       7      r7     0.0004
  13033 C          -11.1494    20.7138    23.6040 C       7      r7    -0.0007
  13034 C           -9.5397    24.8225    23.6894 C       5      r5    -0.0002
  13035 C           -8.9849    24.0819    24.7741 C       7      r7    -0.0011
  13036 C           -9.1447    24.4634    21.0517 C       7      r7     0.0009
  13037 C           -8.9207    24.2204    22.4733 C       5      r5    -0.0007
  13038 C           -8.0745    23.0778    24.2984 C       7      r7     0.0001
  13039 C           -7.8035    23.3231    22.8960 C       5      r5    -0.0029
  13040 C           -6.3798    23.7129    22.6974 C       6      r6    -0.0026
  13041 C           -5.5500    22.5229    24.6798 C       6      r6    -0.0014
  13042 C           -5.3532    22.7250    23.2711 C       6      r6    -0.0013
  13043 C           -4.0155    22.3230    22.7869 C       6      r6     0.0009
  13044 C           -3.8900    22.0078    21.3229 C       5      r5    -0.0014
  13045 C           -3.1411    22.9079    25.0164 C       6      r6     0.0263
  13046 C           -2.8665    22.3377    23.6699 C       6      r6    -0.0043
  13047 C           -1.6103    21.7283    23.3704 C       6      r6     0.0037
  13048 C           -1.4836    20.6892    22.3684 C       7      r7    -0.0016
  13049 C           -0.5468    21.9224    24.3848 C       5      r5    -0.0030
  13050 C           -0.3121    20.5008    21.4585 C       7      r7    -0.0014
  13051 C            0.2092    20.7219    24.6643 C       7      r7    -0.0015
  13052 C            0.4519    22.6509    20.8920 C       0      r0    -0.0259
  13053 C            0.8263    21.4344    21.5949 C       0      r0     0.0037
  13054 C            1.3606    24.0376    20.7009 C       5      r5     0.2020
  13055 C            1.6472    20.9964    22.7029 C       0      r0    -0.0050
  13056 C            2.2411    24.2267    21.9609 C       7      r7    -0.0192
  13057 C            2.9660    21.2292    23.4137 C       7      r7     0.0067
  13058 C            3.2706    23.2139    22.0712 C       7      r7    -0.0025
  13059 C            3.4115    22.6326    23.4643 C       7      r7     0.0150
  13060 C            3.5257    23.4041    24.7345 C       7      r7     0.0074
  13061 C            3.7278    22.6008    20.8598 C       6      r6    -0.0023
  13062 C            4.1505    24.7742    24.7026 C       7      r7     0.0014
  13063 C            5.0422    22.1798    20.7261 C       6      r6     0.0051
  13064 C            6.0792    22.7374    21.5239 C       5      r5     0.0081
  13065 C            6.1494    23.8842    22.4385 C       5      r5     0.0038
  13066 C            7.3465    21.9851    21.4406 C       7      r7    -0.0006
  13067 C            7.3168    23.4840    23.1717 C       5      r5     0.0038
  13068 C            7.6256    20.8668    20.5358 C       7      r7     0.0047
  13069 C            7.6548    23.9532    24.5772 C       5      r5     0.0268
  13070 C            7.9370    22.2588    22.6853 C       7      r7     0.0228
  13071 C            9.1256    21.4142    23.1277 C       7      r7     0.0065
  13072 C           10.1239    20.9737    20.8119 C       7      r7    -0.0008
  13073 C           10.2339    21.5134    22.1705 C       7      r7    -0.0047
  13074 C           11.6011    21.7654    22.6719 C       7      r7    -0.0012
  13075 C           11.8689    22.5072    23.9294 C       7      r7    -0.0010
  13076 C           12.5939    20.7833    22.2866 C       0      r0    -0.0027
  13077 C           12.5133    24.7397    22.8840 C       0      r0    -0.0002
  13078 C           12.6968    23.7111    23.9993 C       7      r7    -0.0013
  13079 C           13.1770    24.6928    21.5970 C       0      r0     0.0013
  13080 C           14.0383    23.5026    21.3373 C       7      r7    -0.0001
  13081 C           14.0465    20.9133    22.3086 C       7      r7    -0.0007
  13082 C           14.6957    23.0677    22.6066 C       7      r7     0.0009
  13083 C           14.7625    21.8172    23.2417 C       7      r7     0.0001
  13084 C           15.0403    20.7670    21.1849 C       7      r7     0.0013
  13085 C           15.9483    23.8358    22.8975 C       0      r0     0.0009
  13086 C           15.8010    21.2187    24.1443 C       5      r5     0.0013
  13087 C           16.9896    21.8006    24.7115 C       5      r5     0.0005
  13088 C           17.1093    23.4954    21.9930 C       7      r7    -0.0005
  13089 C           18.0949    22.6089    24.0712 C       6      r6     0.0000
  13090 C           18.1526    22.8927    22.6397 C       7      r7    -0.0006
  13091 C           19.1935    21.6160    20.7569 C       7      r7    -0.0002
  13092 C           19.2188    23.1188    24.8120 C       6      r6     0.0007
  13093 C           19.3968    22.9633    21.7069 C       7      r7     0.0010
  13094 C           19.4235    24.4397    21.2757 C       6      r6     0.0005
  13095 C           20.5558    23.0449    24.0472 C       6      r6    -0.0001
  13096 C           20.6614    22.9639    22.6356 C       6      r6    -0.0001
  13097 C           21.7407    23.9502    20.5811 C       7      r7     0.0017
  13098 C           21.7085    23.2028    24.9417 C       6      r6    -0.0002
  13099 C           21.8614    23.3322    21.9404 C       7      r7     0.0017
  13100 C           22.8969    23.6321    24.1762 C       6      r6    -0.0006
  13101 C           23.0781    23.1297    22.7845 C       7      r7     0.0006
  13102 C           23.2419   -24.9559    24.4472 C       7      r7     0.0005
  13103 C           24.4332    23.0267    22.2676 C       7      r7     0.0007
  13104 C           24.6119    20.7337    24.8172 C       7      r7     0.0002
  13105 C           24.8291    23.5689    20.9179 C       7      r7     0.0006
  13106 C          -25.2198    22.0443    24.5064 C       7      r7     0.0004
  13107 B           25.2357   -24.9788    25.0377 B       8     BOX     0.0000
  13108 B          -25.2357   -24.9788    25.0377 B       8     BOX     0.0000
  13109 B          -25.2357    24.9788    25.0377 B       8     BOX     0.0000
  13110 B           25.2357    24.9788    25.0377 B       8     BOX     0.0000
  13111 B           25.2357   -24.9788   -25.0377 B       8     BOX     0.0000
  13112 B          -25.2357   -24.9788   -25.0377 B       8     BOX     0.0000
  13113 B          -25.2357    24.9788   -25.0377 B       8     BOX     0.0000
  13114 B           25.2357    24.9788   -25.0377 B       8     BOX     0.0000
@<TRIPOS>BOND
     1      1      2      1
     2      1   1151      1
     3      2      4      1
     4      3      5      1
     5      4      6      1
     6      4   1152      1
     7      5      7      1
     8      6      7      1
     9      7      8      1
    10      8      9      1
    11      8     10      1
    12      9     11      1
    13     10     12      1
    14     10     13      1
    15     11     13      1
    16     12     14      1
    17     12   1160      1
    18     13    105      1
    19     14     15      1
    20     14     16      1
    21     15   2240      1
    22     16     17      1
    23     16     19      1
    24     17    106      1
    25     17   1170      1
    26     18     19      1
    27     18   1059      1
    28     19     20      1
    29     20     21      1
    30     20     22      1
    31     21     23      1
    32     21   1173      1
    33     22     24      1
    34     22     25      1
    35     23     25      1
    36     23   1177      1
    37     24     26      1
    38     25     27      1
    39     26     28      1
    40     27     29      1
    41     27   1074      1
    42     28     29      1
    43     30     32      1
    44     30   1189      1
    45     31     34      1
    46     31     37      1
    47     31  11948      1
    48     32     33      1
    49     32     36      1
    50     33     38      1
    51     34     36      1
    52     34    126      1
    53     35     36      1
    54     35   1190      1
    55     35   1191      1
    56     37     38      1
    57     39     40      1
    58     39    130      1
    59     40     44      1
    60     41     43      1
    61     42     43      1
    62     43     45      1
    63     44     45      1
    64     44   1200      1
    65     45     49      1
    66     46   1203      1
    67     47   1091      1
    68     48     49      1
    69     49     51      1
    70     50     51      1
    71     51     52      1
    72     52     53      1
    73     52     55      1
    74     54     56      1
    75     54    142      1
    76     54   1207      1
    77     55     57      1
    78     55     58      1
    79     56     58      1
    80     56    148      1
    81     57     61      1
    82     58     59      1
    83     59     60      1
    84     59   1213      1
    85     61     63      1
    86     61    151      1
    87     62     64      1
    88     63     65      1
    89     63    157      1
    90     64     66      1
    91     65     68      1
    92     66     67      1
    93     66     70      1
    94     67     69      1
    95     67   1222      1
    96     68     70      1
    97     68    160      1
    98     69     71      1
    99     69   1225      1
   100     70     72      1
   101     71     74      1
   102     71   1228      1
   103     72     73      1
   104     72     74      1
   105     73     75      1
   106     74     76      1
   107     75     78      1
   108     76     78      1
   109     76     79      1
   110     77     80      1
   111     77    169      1
   112     78     81      1
   113     79    172      1
   114     79   1235      1
   115     80    178      1
   116     81     82      1
   117     82   1235      1
   118     82   1237      1
   119     83  11996      1
   120     83  11997      1
   121     84     85      1
   122     85     86      1
   123     85     87      1
   124     86     88      1
   125     88     89      1
   126     88    187      1
   127     90     91      1
   128     90    192      1
   129     90   1248      1
   130     91     92      1
   131     91     93      1
   132     92    197      1
   133     93     95      1
   134     93   1257      1
   135     94     96      1
   136     94   1257      1
   137     95   1361      1
   138     97    200      1
   139     99    100      1
   140     99    203      1
   141    100    101      1
   142    100    208      1
   143    102    104      1
   144    102    216      1
   145    102   1271      1
   146    103    104      1
   147    103    106      1
   148    103   1272      1
   149    104    108      1
   150    105    106      1
   151    105    107      1
   152    107    110      1
   153    108    109      1
   154    108    110      1
   155    109    217      1
   156    109    222      1
   157    110    111      1
   158    111    112      1
   159    111    113      1
   160    113    114      1
   161    114    116      1
   162    114   1287      1
   163    115    119      1
   164    116    118      1
   165    116    119      1
   166    117    118      1
   167    117    121      1
   168    117    229      1
   169    118    120      1
   170    119    122      1
   171    120    235      1
   172    120   1289      1
   173    121    122      1
   174    123    128      1
   175    123    241      1
   176    123   1402      1
   177    124    125      1
   178    124  11948      1
   179    125    126      1
   180    125    129      1
   181    126    130      1
   182    127    129      1
   183    127    241      1
   184    127    246      1
   185    128    131      1
   186    128   1298      1
   187    129    131      1
   188    130   1190      1
   189    131    133      1
   190    132    134      1
   191    132    246      1
   192    133    135      1
   193    133   1303      1
   194    134    135      1
   195    134    136      1
   196    135    137      1
   197    136    139      1
   198    137    138      1
   199    137    139      1
   200    138   1306      1
   201    138   1311      1
   202    139    140      1
   203    140    141      1
   204    140    143      1
   205    141    146      1
   206    142    144      1
   207    142   1311      1
   208    143    144      1
   209    143    147      1
   210    144    148      1
   211    145    260      1
   212    145    265      1
   213    145   1316      1
   214    146    147      1
   215    147    150      1
   216    148    151      1
   217    149    154      1
   218    149    265      1
   219    149   1318      1
   220    150    151      1
   221    150    153      1
   222    152    153      1
   223    152    267      1
   224    152    272      1
   225    153    156      1
   226    154    155      1
   227    154   1322      1
   228    155    159      1
   229    155    275      1
   230    156    157      1
   231    156    158      1
   232    157    160      1
   233    158    162      1
   234    158    277      1
   235    159    161      1
   236    159    163      1
   237    160    166      1
   238    161    165      1
   239    162    164      1
   240    163    167      1
   241    163   1441      1
   242    164    280      1
   243    164    284      1
   244    165    166      1
   245    165    168      1
   246    166    169      1
   247    167    170      1
   248    167    286      1
   249    168    170      1
   250    168    171      1
   251    169    171      1
   252    170    173      1
   253    171    174      1
   254    172   1332      1
   255    173    176      1
   256    173    177      1
   257    174    176      1
   258    174    178      1
   259    175    290      1
   260    176    179      1
   261    177    180      1
   262    177   1454      1
   263    178    181      1
   264    179    180      1
   265    179    182      1
   266    180    295      1
   267    181    184      1
   268    182    183      1
   269    182    185      1
   270    183    186      1
   271    183   1340      1
   272    184    185      1
   273    185    187      1
   274    186    187      1
   275    186   1241      1
   276    188    190      1
   277    188   1345      1
   278    188   1351      1
   279    189    190      1
   280    189    191      1
   281    189    300      1
   282    190    193      1
   283    191    194      1
   284    192    193      1
   285    192   1351      1
   286    193    195      1
   287    194    195      1
   288    195    196      1
   289    196    197      1
   290    197    198      1
   291    198    200      1
   292    198    201      1
   293    199    200      1
   294    199   1360      1
   295    199   1361      1
   296    203    207      1
   297    204    205      1
   298    204    321      1
   299    206  12141      1
   300    207    208      1
   301    207   1369      1
   302    208    210      1
   303    209    211      1
   304    209    212      1
   305    209    321      1
   306    210    211      1
   307    210    213      1
   308    211   1372      1
   309    212    214      1
   310    212    328      1
   311    213    215      1
   312    213    216      1
   313    214    215      1
   314    214    334      1
   315    215    218      1
   316    216    217      1
   317    217    218      1
   318    218    220      1
   319    219    220      1
   320    219    334      1
   321    219    340      1
   322    220    221      1
   323    221    224      1
   324    222    225      1
   325    222   1282      1
   326    223    224      1
   327    224    225      1
   328    225    226      1
   329    226    228      1
   330    226   1388      1
   331    227    228      1
   332    227    231      1
   333    227    348      1
   334    228    230      1
   335    229    230      1
   336    230    232      1
   337    231    232      1
   338    232    236      1
   339    233    234      1
   340    233    235      1
   341    233   1396      1
   342    234    237      1
   343    234    349      1
   344    235    239      1
   345    236    237      1
   346    236    238      1
   347    237    351      1
   348    238    239      1
   349    238    240      1
   350    239    241      1
   351    242    243      1
   352    242   1404      1
   353    243    247      1
   354    243   1520      1
   355    244    245      1
   356    244    359      1
   357    245    248      1
   358    245    249      1
   359    246    248      1
   360    247    249      1
   361    247    361      1
   362    248    250      1
   363    249    251      1
   364    251    252      1
   365    252    253      1
   366    252    255      1
   367    253    257      1
   368    253   1415      1
   369    254    256      1
   370    254    366      1
   371    255    256      1
   372    255    259      1
   373    256    258      1
   374    257    260      1
   375    257   1314      1
   376    259    260      1
   377    259    261      1
   378    261    264      1
   379    262    263      1
   380    262   1420      1
   381    262   1424      1
   382    263    269      1
   383    263    375      1
   384    264    267      1
   385    265    267      1
   386    265    268      1
   387    266    270      1
   388    266    377      1
   389    268   1428      1
   390    268   1433      1
   391    269    270      1
   392    269    271      1
   393    270    273      1
   394    271    274      1
   395    271   1546      1
   396    272    277      1
   397    273    274      1
   398    273    276      1
   399    274    381      1
   400    275   1433      1
   401    275   1438      1
   402    276    278      1
   403    277    280      1
   404    278    279      1
   405    279    280      1
   406    281    282      1
   407    281    283      1
   408    281   1444      1
   409    282    385      1
   410    282    388      1
   411    283    286      1
   412    283    287      1
   413    284    288      1
   414    285    287      1
   415    285    388      1
   416    286   1451      1
   417    287    288      1
   418    289    291      1
   419    289    398      1
   420    289   1455      1
   421    291    293      1
   422    291   1459      1
   423    292    294      1
   424    292    398      1
   425    292    400      1
   426    293    294      1
   427    293    295      1
   428    294    296      1
   429    295    297      1
   430    296    298      1
   431    297    300      1
   432    297   1345      1
   433    298    299      1
   434    298    303      1
   435    299    400      1
   436    299    405      1
   437    300    302      1
   438    301    304      1
   439    301   1465      1
   440    301   1469      1
   441    302    303      1
   442    302    304      1
   443    304   1470      1
   444    305    306      1
   445    305    410      1
   446    306    307      1
   447    306    309      1
   448    307    311      1
   449    308    310      1
   450    308    412      1
   451    308   1473      1
   452    309    310      1
   453    309    312      1
   454    310    313      1
   455    311    312      1
   456    312    314      1
   457    313    315      1
   458    313    416      1
   459    314    315      1
   460    316    320      1
   461    316   1483      1
   462    317    318      1
   463    317    319      1
   464    317    418      1
   465    318    322      1
   466    319    323      1
   467    319    422      1
   468    320    321      1
   469    320    324      1
   470    322    323      1
   471    322    325      1
   472    323    324      1
   473    323    327      1
   474    324    326      1
   475    325    328      1
   476    326    329      1
   477    326   1486      1
   478    327    330      1
   479    327    425      1
   480    328    331      1
   481    329    330      1
   482    329    332      1
   483    330    333      1
   484    331    333      1
   485    331    334      1
   486    332    336      1
   487    332   1490      1
   488    333    335      1
   489    335    434      1
   490    336    338      1
   491    336   1498      1
   492    337    339      1
   493    337    433      1
   494    337    436      1
   495    338    339      1
   496    338    340      1
   497    339    342      1
   498    340    344      1
   499    341    343      1
   500    341    345      1
   501    342    343      1
   502    342    346      1
   503    343    437      1
   504    344    345      1
   505    344    348      1
   506    346    439      1
   507    346   1505      1
   508    347    348      1
   509    347   1386      1
   510    347   1502      1
   511    349    350      1
   512    349   1397      1
   513    350    352      1
   514    350   1512      1
   515    351    352      1
   516    351    353      1
   517    352    354      1
   518    353    355      1
   519    354    355      1
   520    354    357      1
   521    355    356      1
   522    356    452      1
   523    357    358      1
   524    357    452      1
   525    358    360      1
   526    358   1522      1
   527    359    362      1
   528    360    361      1
   529    360    363      1
   530    361    365      1
   531    362    366      1
   532    363    364      1
   533    363    367      1
   534    364    368      1
   535    364   1636      1
   536    365    366      1
   537    365    367      1
   538    367    369      1
   539    368    370      1
   540    368    460      1
   541    369    370      1
   542    369    371      1
   543    370   1534      1
   544    371    373      1
   545    371    374      1
   546    372    373      1
   547    372   1420      1
   548    372   1534      1
   549    373    375      1
   550    374    376      1
   551    375    376      1
   552    376    377      1
   553    378    379      1
   554    379    380      1
   555    380    382      1
   556    381    383      1
   557    381   1552      1
   558    382    383      1
   559    382    384      1
   560    383    385      1
   561    384    386      1
   562    384    479      1
   563    385    387      1
   564    385   1555      1
   565    386    387      1
   566    386    391      1
   567    387   1563      1
   568    388    390      1
   569    389    390      1
   570    389    392      1
   571    390    393      1
   572    391    392      1
   573    391    394      1
   574    391    487      1
   575    392    395      1
   576    393    396      1
   577    394    397      1
   578    394   1566      1
   579    395    492      1
   580    396    397      1
   581    396    398      1
   582    397    399      1
   583    399    496      1
   584    399   1573      1
   585    400    401      1
   586    401    402      1
   587    401   1465      1
   588    402   1573      1
   589    402   1578      1
   590    403    404      1
   591    404    499      1
   592    404    503      1
   593    405    406      1
   594    405    410      1
   595    406    407      1
   596    406    409      1
   597    408    409      1
   598    408    503      1
   599    408    507      1
   600    409    411      1
   601    410    412      1
   602    411    412      1
   603    411    413      1
   604    413    414      1
   605    413    509      1
   606    414    415      1
   607    415    515      1
   608    416   1592      1
   609    417   1694      1
   610    418    419      1
   611    419    420      1
   612    419    421      1
   613    420    422      1
   614    421    423      1
   615    423    521      1
   616    424    426      1
   617    424   1601      1
   618    424   1604      1
   619    426    428      1
   620    426    523      1
   621    427    430      1
   622    428    429      1
   623    428    430      1
   624    429    431      1
   625    429   1604      1
   626    430    432      1
   627    431    433      1
   628    431    435      1
   629    432    435      1
   630    433   1609      1
   631    434    436      1
   632    435    436      1
   633    437    438      1
   634    438    440      1
   635    438    441      1
   636    439    440      1
   637    439    443      1
   638    440    442      1
   639    441    444      1
   640    442    444      1
   641    442    445      1
   642    443    445      1
   643    443   1617      1
   644    444    446      1
   645    445    447      1
   646    446    448      1
   647    446    536      1
   648    447    448      1
   649    447   1623      1
   650    448    540      1
   651    449    450      1
   652    449    540      1
   653    449    547      1
   654    450    451      1
   655    451    452      1
   656    453    551      1
   657    453    560      1
   658    453   1635      1
   659    454    456      1
   660    454    559      1
   661    455    457      1
   662    455   1635      1
   663    455   1636      1
   664    456    457      1
   665    457    458      1
   666    458    460      1
   667    458    462      1
   668    459    461      1
   669    459    563      1
   670    460    465      1
   671    461    462      1
   672    461    463      1
   673    462    464      1
   674    464    466      1
   675    464    467      1
   676    465    467      1
   677    465   1540      1
   678    466    468      1
   679    466    568      1
   680    467    469      1
   681    468    470      1
   682    468    571      1
   683    469    470      1
   684    469   1643      1
   685    470    472      1
   686    471    571      1
   687    471    575      1
   688    472    473      1
   689    472   1644      1
   690    473    475      1
   691    473    577      1
   692    474    475      1
   693    474    575      1
   694    475    476      1
   695    476    477      1
   696    476    478      1
   697    477    479      1
   698    477   1656      1
   699    478    481      1
   700    478    581      1
   701    479    480      1
   702    480    482      1
   703    480  12333      1
   704    481    483      1
   705    481    588      1
   706    482    484      1
   707    483    484      1
   708    483    485      1
   709    484    487      1
   710    485    592      1
   711    486    487      1
   712    486    488      1
   713    486   1660      1
   714    486   1663      1
   715    487    489      1
   716    488    490      1
   717    488   1664      1
   718    489    490      1
   719    489    491      1
   720    490    599      1
   721    491    492      1
   722    491    494      1
   723    492    495      1
   724    493    497      1
   725    493    599      1
   726    493    603      1
   727    494    496      1
   728    494    497      1
   729    495    499      1
   730    496   1671      1
   731    497    498      1
   732    498   1671      1
   733    498   1672      1
   734    500    501      1
   735    500    502      1
   736    501    505      1
   737    501    605      1
   738    502    504      1
   739    503    504      1
   740    504    506      1
   741    505    508      1
   742    505    613      1
   743    506    507      1
   744    506    508      1
   745    507    509      1
   746    508    510      1
   747    509   1684      1
   748    510    511      1
   749    511    512      1
   750    512    622      1
   751    512    627      1
   752    513    514      1
   753    513    515      1
   754    513   1684      1
   755    514    516      1
   756    514   1686      1
   757    517    518      1
   758    518    520      1
   759    518    521      1
   760    519    520      1
   761    519    628      1
   762    519    633      1
   763    520    522      1
   764    521    523      1
   765    522    524      1
   766    522    525      1
   767    522   1700      1
   768    523    525      1
   769    524    633      1
   770    524    636      1
   771    525    526      1
   772    526    528      1
   773    526    529      1
   774    527    528      1
   775    528    530      1
   776    529    531      1
   777    529   1707      1
   778    530    531      1
   779    530    532      1
   780    531    533      1
   781    532    534      1
   782    533   1716      1
   783    535    537      1
   784    535    656      1
   785    536    541      1
   786    537    538      1
   787    537  12507      1
   788    538    539      1
   789    538    542      1
   790    539    544      1
   791    539    660      1
   792    540    542      1
   793    542    545      1
   794    544    545      1
   795    544    664      1
   796    545    549      1
   797    546    548      1
   798    546    550      1
   799    547    551      1
   800    547   1631      1
   801    548    554      1
   802    548    665      1
   803    549    552      1
   804    549    553      1
   805    550    555      1
   806    551    553      1
   807    552    557      1
   808    552    670      1
   809    553    558      1
   810    554    556      1
   811    554    674      1
   812    555    556      1
   813    555    559      1
   814    556    562      1
   815    557    558      1
   816    557   1839      1
   817    558    561      1
   818    559    563      1
   819    560    561      1
   820    560   1739      1
   821    561    566      1
   822    562    564      1
   823    562    565      1
   824    563    565      1
   825    564    678      1
   826    565    567      1
   827    566    567      1
   828    566   1741      1
   829    567    568      1
   830    568    569      1
   831    569    570      1
   832    570    571      1
   833    572    690      1
   834    573    574      1
   835    573    576      1
   836    574    578      1
   837    574    690      1
   838    575    576      1
   839    576    579      1
   840    577    581      1
   841    577   1759      1
   842    578    580      1
   843    578    697      1
   844    579    580      1
   845    581    583      1
   846    582    584      1
   847    582    697      1
   848    583    585      1
   849    583   1761      1
   850    584    585      1
   851    584   1871      1
   852    585    587      1
   853    586    589      1
   854    587    588      1
   855    587    591      1
   856    588    592      1
   857    589    590      1
   858    589    706      1
   859    590    593      1
   860    591    594      1
   861    591   1770      1
   862    592    593      1
   863    593    594      1
   864    593    595      1
   865    594    597      1
   866    594    708      1
   867    595    600      1
   868    596    597      1
   869    596    599      1
   870    596   1774      1
   871    597    601      1
   872    598  12549      1
   873    598  12553      1
   874    600    712      1
   875    601   1777      1
   876    601   1882      1
   877    602    717      1
   878    602  12554      1
   879    603    604      1
   880    603    605      1
   881    605    606      1
   882    606    608      1
   883    606   1779      1
   884    607    609      1
   885    608    610      1
   886    608   1782      1
   887    609    610      1
   888    609    721      1
   889    610    611      1
   890    611    612      1
   891    611    613      1
   892    613    617      1
   893    614    615      1
   894    614    618      1
   895    614    724      1
   896    615    620      1
   897    615   1786      1
   898    616    617      1
   899    617    622      1
   900    618    619      1
   901    618    621      1
   902    619    730      1
   903    620    621      1
   904    620   1793      1
   905    621    623      1
   906    622    623      1
   907    623    624      1
   908    624    625      1
   909    625    732      1
   910    626   1796      1
   911    628    629      1
   912    629    630      1
   913    630    631      1
   914    630    632      1
   915    631    634      1
   916    631    740      1
   917    632    633      1
   918    634    635      1
   919    634    746      1
   920    635    637      1
   921    635   1915      1
   922    636    638      1
   923    636   1804      1
   924    637    640      1
   925    637   1805      1
   926    638    640      1
   927    638    642      1
   928    639    641      1
   929    639    748      1
   930    640    641      1
   931    641    644      1
   932    642    643      1
   933    642    645      1
   934    644    749      1
   935    645    646      1
   936    645    648      1
   937    646   1710      1
   938    646   1814      1
   939    647    648      1
   940    648    650      1
   941    649    650      1
   942    649    651      1
   943    649   1814      1
   944    650    652      1
   945    651    653      1
   946    651   1818      1
   947    652    654      1
   948    652    655      1
   949    653    655      1
   950    653    754      1
   951    654    656      1
   952    655    657      1
   953    656    658      1
   954    657    658      1
   955    657    659      1
   956    658    660      1
   957    659    661      1
   958    659    662      1
   959    660    662      1
   960    661    763      1
   961    662    663      1
   962    663    664      1
   963    663    668      1
   964    664    670      1
   965    665    667      1
   966    666    669      1
   967    666    763      1
   968    667    672      1
   969    668    669      1
   970    668    671      1
   971    669    673      1
   972    669    768      1
   973    670    671      1
   974    671    676      1
   975    672    674      1
   976    672    675      1
   977    673    675      1
   978    673    677      1
   979    673    773      1
   980    674    678      1
   981    676    677      1
   982    676    679      1
   983    677    680      1
   984    679    681      1
   985    679   1839      1
   986    680    682      1
   987    680    775      1
   988    681    682      1
   989    681   1843      1
   990    682    683      1
   991    683    779      1
   992    683   1845      1
   993    684    685      1
   994    684    686      1
   995    685    687      1
   996    686    689      1
   997    686    782      1
   998    687    690      1
   999    687    691      1
  1000    688    692      1
  1001    688   1853      1
  1002    688   1856      1
  1003    689    691      1
  1004    691    693      1
  1005    692    693      1
  1006    692    695      1
  1007    693    694      1
  1008    694    696      1
  1009    694   1859      1
  1010    695    697      1
  1011    695   1757      1
  1012    696    698      1
  1013    696    790      1
  1014    698    699      1
  1015    698   1865      1
  1016    699    700      1
  1017    699    702      1
  1018    700    701      1
  1019    700    795      1
  1020    701    703      1
  1021    702    704      1
  1022    702    705      1
  1023    703    704      1
  1024    704    706      1
  1025    705    707      1
  1026    705   1872      1
  1027    706    708      1
  1028    707    709      1
  1029    707    799      1
  1030    707   1876      1
  1031    708    710      1
  1032    708    712      1
  1033    709    711      1
  1034    709    802      1
  1035    710    711      1
  1036    710    715      1
  1037    711    713      1
  1038    712    714      1
  1039    713    714      1
  1040    713    716      1
  1041    715   1880      1
  1042    715   1882      1
  1043    716    804      1
  1044    717  12665      1
  1045    718    719      1
  1046    718    808      1
  1047    719    720      1
  1048    719    811      1
  1049    720   1892      1
  1050    721    722      1
  1051    721    724      1
  1052    722    723      1
  1053    722    725      1
  1054    724    726      1
  1055    725    726      1
  1056    725    727      1
  1057    726    728      1
  1058    727    816      1
  1059    727    820      1
  1060    728    729      1
  1061    728    731      1
  1062    728   1896      1
  1063    729    820      1
  1064    729   2001      1
  1065    730    732      1
  1066    731    733      1
  1067    731   1901      1
  1068    732    733      1
  1069    733    734      1
  1070    734    735      1
  1071    735   1904      1
  1072    736    740      1
  1073    737    741      1
  1074    737   1906      1
  1075    738    742      1
  1076    739    740      1
  1077    739    744      1
  1078    741    743      1
  1079    741    832      1
  1080    742    743      1
  1081    742    837      1
  1082    743    745      1
  1083    744    747      1
  1084    745    746      1
  1085    745   1912      1
  1086    746    747      1
  1087    747    748      1
  1088    749    750      1
  1089    750    753      1
  1090    751    752      1
  1091    751    754      1
  1092    751   1927      1
  1093    752    755      1
  1094    752   1928      1
  1095    753    754      1
  1096    753    756      1
  1097    755    758      1
  1098    755    854      1
  1099    756    757      1
  1100    756    759      1
  1101    758    759      1
  1102    758    860      1
  1103    759    760      1
  1104    760    761      1
  1105    761    764      1
  1106    761    863      1
  1107    762    763      1
  1108    762    764      1
  1109    764    766      1
  1110    765    766      1
  1111    765    866      1
  1112    765   1940      1
  1113    766    767      1
  1114    767    768      1
  1115    767    769      1
  1116    768    771      1
  1117    769   1942      1
  1118    769   1947      1
  1119    770    772      1
  1120    770    874      1
  1121    770    875      1
  1122    771    772      1
  1123    771    773      1
  1124    773    774      1
  1125    774    775      1
  1126    775    777      1
  1127    776    778      1
  1128    777    778      1
  1129    777    779      1
  1130    778    780      1
  1131    779    781      1
  1132    780    881      1
  1133    780    884      1
  1134    781    783      1
  1135    781   1955      1
  1136    782    784      1
  1137    783    784      1
  1138    783    785      1
  1139    784    786      1
  1140    785    890      1
  1141    785   1960      1
  1142    786    787      1
  1143    787    788      1
  1144    787    892      1
  1145    788    789      1
  1146    789    791      1
  1147    789    897      1
  1148    790    792      1
  1149    790    793      1
  1150    791    793      1
  1151    792    796      1
  1152    792   1969      1
  1153    793    795      1
  1154    794    796      1
  1155    794    897      1
  1156    794    900      1
  1157    794   2079      1
  1158    796   1972      1
  1159    797    901      1
  1160    798    800      1
  1161    798   1972      1
  1162    798   1976      1
  1163    799    800      1
  1164    799   1973      1
  1165    800    801      1
  1166    801    802      1
  1167    801    803      1
  1168    802    804      1
  1169    803    805      1
  1170    803   1983      1
  1171    804    808      1
  1172    805    806      1
  1173    805    809      1
  1174    806    810      1
  1175    806    917      1
  1176    807    810      1
  1177    808    809      1
  1178    809    811      1
  1179    810    812      1
  1180    811    814      1
  1181    812    813      1
  1182    812    922      1
  1183    814    815      1
  1184    814   1992      1
  1185    815    817      1
  1186    815   1995      1
  1187    816    818      1
  1188    817    819      1
  1189    817    820      1
  1190    818    819      1
  1191    819    821      1
  1192    821    822      1
  1193    821    932      1
  1194    822    824      1
  1195    822    825      1
  1196    823    826      1
  1197    823   2001      1
  1198    823   2005      1
  1199    824    935      1
  1200    824    939      1
  1201    825    826      1
  1202    825    827      1
  1203    828    833      1
  1204    829    832      1
  1205    830    834      1
  1206    831    835      1
  1207    831    941      1
  1208    832   2011      1
  1209    833    834      1
  1210    833    836      1
  1211    834    837      1
  1212    835    836      1
  1213    835   2013      1
  1214    836    947      1
  1215    837    839      1
  1216    838    840      1
  1217    838   2011      1
  1218    839    840      1
  1219    839    841      1
  1220    840    842      1
  1221    841    843      1
  1222    842    844      1
  1223    843    844      1
  1224    844    845      1
  1225    845    847      1
  1226    845    848      1
  1227    846    850      1
  1228    846    957      1
  1229    847    851      1
  1230    848    849      1
  1231    848    852      1
  1232    849    853      1
  1233    849    957      1
  1234    850    851      1
  1235    852    854      1
  1236    852   2024      1
  1237    853    855      1
  1238    853   2025      1
  1239    854    858      1
  1240    855    964      1
  1241    855   2032      1
  1242    856    857      1
  1243    856    962      1
  1244    857    861      1
  1245    857    964      1
  1246    858    859      1
  1247    858    860      1
  1248    859   2032      1
  1249    859   2037      1
  1250    860    863      1
  1251    861    862      1
  1252    861    864      1
  1253    862    865      1
  1254    863    866      1
  1255    864    867      1
  1256    864    970      1
  1257    865    868      1
  1258    866   2041      1
  1259    867    868      1
  1260    867    972      1
  1261    868    869      1
  1262    869    870      1
  1263    869    872      1
  1264    870    874      1
  1265    871    872      1
  1266    871    873      1
  1267    871   2045      1
  1268    872    875      1
  1269    873    876      1
  1270    873   2050      1
  1271    875    877      1
  1272    876    977      1
  1273    877   1947      1
  1274    877   2054      1
  1275    878    879      1
  1276    878   2054      1
  1277    878   2058      1
  1278    879    881      1
  1279    879   2060      1
  1280    880    882      1
  1281    880    982      1
  1282    880   2058      1
  1283    881    883      1
  1284    882    883      1
  1285    882   2065      1
  1286    883    888      1
  1287    884    887      1
  1288    885    886      1
  1289    885    988      1
  1290    886    887      1
  1291    887    889      1
  1292    888    890      1
  1293    888   2067      1
  1294    889    891      1
  1295    889    893      1
  1296    890    892      1
  1297    891    988      1
  1298    891    993      1
  1299    892    893      1
  1300    893    894      1
  1301    894    895      1
  1302    894    896      1
  1303    895    996      1
  1304    895   2075      1
  1305    896    897      1
  1306    898    899      1
  1307    898   2181      1
  1308    899    903      1
  1309    899   1004      1
  1310    900    901      1
  1311    900    902      1
  1312    901    904      1
  1313    902    903      1
  1314    902   2082      1
  1315    902   2085      1
  1316    903    904      1
  1317    903    906      1
  1318    904    905      1
  1319    905    909      1
  1320    906    909      1
  1321    906    910      1
  1322    907  12756      1
  1323    907  12871      1
  1324    908   1006      1
  1325    908  12870      1
  1326    909    912      1
  1327    910    911      1
  1328    910   2088      1
  1329    911    914      1
  1330    911   1013      1
  1331    912    913      1
  1332    913    915      1
  1333    914    916      1
  1334    914   2202      1
  1335    915    916      1
  1336    915    917      1
  1337    916   2094      1
  1338    917    919      1
  1339    917   2100      1
  1340    918   1019      1
  1341    919    920      1
  1342    919    922      1
  1343    920    921      1
  1344    921   1021      1
  1345    921   1025      1
  1346    922    924      1
  1347    923    924      1
  1348    923   1992      1
  1349    923   2107      1
  1350    924    927      1
  1351    925    928      1
  1352    925   1025      1
  1353    925   2216      1
  1354    926    927      1
  1355    926    929      1
  1356    926    930      1
  1357    927    928      1
  1358    928   2110      1
  1359    929    931      1
  1360    930    932      1
  1361    931    933      1
  1362    931   1030      1
  1363    932    935      1
  1364    933    934      1
  1365    933    936      1
  1366    934    937      1
  1367    934   1034      1
  1368    935    936      1
  1369    936    938      1
  1370    937   2113      1
  1371    937   2119      1
  1372    937   2225      1
  1373    940   2119      1
  1374    941    942      1
  1375    942    944      1
  1376    943    944      1
  1377    944    945      1
  1378    945    946      1
  1379    945   1046      1
  1380    947    948      1
  1381    947    949      1
  1382    948    952      1
  1383    949    950      1
  1384    949   2129      1
  1385    950    951      1
  1386    950    953      1
  1387    951   1050      1
  1388    951   2132      1
  1389    952    953      1
  1390    953    954      1
  1391    954    955      1
  1392    954    956      1
  1393    955    959      1
  1394    955   1054      1
  1395    956    957      1
  1396    956    958      1
  1397    958   2139      1
  1398    959    960      1
  1399    959   1062      1
  1400    960    961      1
  1401    960    963      1
  1402    961    962      1
  1403    963    966      1
  1404    963   1067      1
  1405    964    965      1
  1406    965    966      1
  1407    965    968      1
  1408    966    967      1
  1409    967    969      1
  1410    967   1073      1
  1411    968    970      1
  1412    968   2149      1
  1413    969   2149      1
  1414    969   2255      1
  1415    970   2039      1
  1416    971    974      1
  1417    971   1078      1
  1418    972    973      1
  1419    973    974      1
  1420    973    975      1
  1421    975    976      1
  1422    976   2155      1
  1423    977    978      1
  1424    977   2158      1
  1425    978    979      1
  1426    978   2160      1
  1427    979    980      1
  1428    979    982      1
  1429    980    981      1
  1430    982    984      1
  1431    983    984      1
  1432    983    986      1
  1433    983   2164      1
  1434    984   2169      1
  1435    985    986      1
  1436    985    987      1
  1437    985   1099      1
  1438    986    990      1
  1439    986   1098      1
  1440    987    989      1
  1441    988    989      1
  1442    989    991      1
  1443    990    991      1
  1444    990    992      1
  1445    991    993      1
  1446    992    995      1
  1447    992   2173      1
  1448    993    996      1
  1449    994    997      1
  1450    994   1104      1
  1451    995    998      1
  1452    995   1105      1
  1453    996    999      1
  1454    997    998      1
  1455    997  12956      1
  1456    998   1000      1
  1457    999   1000      1
  1458    999   1001      1
  1459   1000   1002      1
  1460   1001   1004      1
  1461   1001  12958      1
  1462   1002   1003      1
  1463   1002   2182      1
  1464   1003   1005      1
  1465   1003   1109      1
  1466   1004  12864      1
  1467   1005   1116      1
  1468   1005   2188      1
  1469   1006  12962      1
  1470   1007   1008      1
  1471   1007   1009      1
  1472   1007   1118      1
  1473   1008   1011      1
  1474   1009   1012      1
  1475   1009   1122      1
  1476   1010   1012      1
  1477   1010   1013      1
  1478   1010   2196      1
  1479   1011   1014      1
  1480   1012   1015      1
  1481   1013   1014      1
  1482   1014   1017      1
  1483   1015   1016      1
  1484   1015   1127      1
  1485   1016   1018      1
  1486   1016   2200      1
  1487   1017   1019      1
  1488   1018   1020      1
  1489   1018   2206      1
  1490   1019   1021      1
  1491   1020   1022      1
  1492   1020   1131      1
  1493   1021   1024      1
  1494   1022   1023      1
  1495   1022   1024      1
  1496   1023   1133      1
  1497   1024   1026      1
  1498   1025   1026      1
  1499   1026   1028      1
  1500   1027   1028      1
  1501   1027   1140      1
  1502   1027   2213      1
  1503   1028   1031      1
  1504   1029   1033      1
  1505   1029   1140      1
  1506   1030   1032      1
  1507   1030   1034      1
  1508   1031   1034      1
  1509   1031   2219      1
  1510   1033   1035      1
  1511   1035   1037      1
  1512   1035   1146      1
  1513   1036   1039      1
  1514   1036   1148      1
  1515   1036   2223      1
  1516   1037   1040      1
  1517   1039   1040      1
  1518   1041   1044      1
  1519   1042   2226      1
  1520   1044   1045      1
  1521   1045   1046      1
  1522   1046   1048      1
  1523   1047   2231      1
  1524   1048   1049      1
  1525   1049   1052      1
  1526   1049   1053      1
  1527   1050   1052      1
  1528   1050   2236      1
  1529   1051   1053      1
  1530   1052   1054      1
  1531   1053   1055      1
  1532   1054   1055      1
  1533   1055   1058      1
  1534   1056   1058      1
  1535   1057   1060      1
  1536   1058   1061      1
  1537   1060   1064      1
  1538   1060   2242      1
  1539   1061   1062      1
  1540   1061   1063      1
  1541   1062   1067      1
  1542   1063   1065      1
  1543   1063   1066      1
  1544   1064   1066      1
  1545   1064   2248      1
  1546   1066   1069      1
  1547   1067   1070      1
  1548   1068   1070      1
  1549   1068   2248      1
  1550   1068   2249      1
  1551   1069   1070      1
  1552   1069   1071      1
  1553   1070   1073      1
  1554   1071   1072      1
  1555   1072   1075      1
  1556   1073   1075      1
  1557   1073   1076      1
  1558   1074   1179      1
  1559   1075   1078      1
  1560   1076   1077      1
  1561   1076   2256      1
  1562   1077   1081      1
  1563   1078   1082      1
  1564   1079   1080      1
  1565   1080   1081      1
  1566   1080   1082      1
  1567   1082   1083      1
  1568   1083   1084      1
  1569   1083   1086      1
  1570   1085   1086      1
  1571   1085   2267      1
  1572   1086   1087      1
  1573   1087   1088      1
  1574   1087   1090      1
  1575   1089   1090      1
  1576   1089   2267      1
  1577   1089   2270      1
  1578   1091   1093      1
  1579   1092   1094      1
  1580   1092   1097      1
  1581   1093   1096      1
  1582   1094   1095      1
  1583   1094   2275      1
  1584   1095   1096      1
  1585   1095   1098      1
  1586   1096   1099      1
  1587   1098   2277      1
  1588   1100   1101      1
  1589   1101   1102      1
  1590   1101   1103      1
  1591   1102   1105      1
  1592   1102   2285      1
  1593   1103   1104      1
  1594   1104   1105      1
  1595   1106   1108      1
  1596   1107   1110      1
  1597   1108   2292      1
  1598   1109   1111      1
  1599   1109   2293      1
  1600   1110   1111      1
  1601   1110   1112      1
  1602   1111   1113      1
  1603   1112   1114      1
  1604   1113   1114      1
  1605   1113   1117      1
  1606   1114   1115      1
  1607   1116   1117      1
  1608   1116   2301      1
  1609   1117   1119      1
  1610   1118   1121      1
  1611   1119   1120      1
  1612   1119   2303      1
  1613   1120   1123      1
  1614   1121   1122      1
  1615   1122   1124      1
  1616   1123   2307      1
  1617   1124   1126      1
  1618   1124   1127      1
  1619   1125  13078      1
  1620   1126   1128      1
  1621   1127   1129      1
  1622   1128   1129      1
  1623   1128   1130      1
  1624   1129   1131      1
  1625   1130   1132      1
  1626   1131   1134      1
  1627   1132   1136      1
  1628   1132   2315      1
  1629   1133   1137      1
  1630   1134   1136      1
  1631   1134   1137      1
  1632   1135   1138      1
  1633   1136   1139      1
  1634   1137   1140      1
  1635   1138   1142      1
  1636   1139   1141      1
  1637   1139   2321      1
  1638   1141   1142      1
  1639   1141   1144      1
  1640   1142   1143      1
  1641   1143   1145      1
  1642   1144   1147      1
  1643   1145   1146      1
  1644   1145   1149      1
  1645   1146   1148      1
  1646   1147   1149      1
  1647   1148   2329      1
  1648   1149   1150      1
  1649   1151   1152      1
  1650   1151   1261      1
  1651   1152   1154      1
  1652   1153   1155      1
  1653   1153   2343      1
  1654   1154   1155      1
  1655   1154   1156      1
  1656   1155   1158      1
  1657   1156   1157      1
  1658   1156   1267      1
  1659   1157   1162      1
  1660   1157   2345      1
  1661   1158   1161      1
  1662   1159   1160      1
  1663   1159   1267      1
  1664   1159   1272      1
  1665   1160   1163      1
  1666   1161   1163      1
  1667   1161   2240      1
  1668   1162   1165      1
  1669   1162   2353      1
  1670   1163   1166      1
  1671   1164   2241      1
  1672   1164   2350      1
  1673   1165   1167      1
  1674   1165   1274      1
  1675   1166   1167      1
  1676   1166   1168      1
  1677   1167   1169      1
  1678   1168   1171      1
  1679   1168   2241      1
  1680   1169   1170      1
  1681   1169   1279      1
  1682   1170   1173      1
  1683   1171   1172      1
  1684   1171   1174      1
  1685   1172   1175      1
  1686   1172   2359      1
  1687   1173   1174      1
  1688   1174   1176      1
  1689   1175   1176      1
  1690   1176   1177      1
  1691   1177   1179      1
  1692   1178   1180      1
  1693   1178   1286      1
  1694   1178   2366      1
  1695   1180   1182      1
  1696   1180   2370      1
  1697   1181   2253      1
  1698   1182   1183      1
  1699   1182   1186      1
  1700   1183   1293      1
  1701   1183   1295      1
  1702   1184   1185      1
  1703   1185   1188      1
  1704   1185   2372      1
  1705   1186   1296      1
  1706   1186   2483      1
  1707   1187   2264      1
  1708   1188   1192      1
  1709   1188   2375      1
  1710   1189   1191      1
  1711   1190   1295      1
  1712   1191   1193      1
  1713   1192   1193      1
  1714   1192   1194      1
  1715   1193   1195      1
  1716   1194   1196      1
  1717   1195   1197      1
  1718   1195   1299      1
  1719   1196   2385      1
  1720   1197   1198      1
  1721   1197   1199      1
  1722   1198   1201      1
  1723   1198   2385      1
  1724   1199   1200      1
  1725   1199   1202      1
  1726   1200   1203      1
  1727   1201   2271      1
  1728   1201   2390      1
  1729   1202   1307      1
  1730   1202   1310      1
  1731   1204   1206      1
  1732   1204   1307      1
  1733   1204   2391      1
  1734   1205   1206      1
  1735   1205   1207      1
  1736   1205   1310      1
  1737   1206   1208      1
  1738   1207   1210      1
  1739   1208   1211      1
  1740   1208   2507      1
  1741   1209   1212      1
  1742   1209   2396      1
  1743   1210   1211      1
  1744   1210   1214      1
  1745   1211   1216      1
  1746   1212   1217      1
  1747   1213   1214      1
  1748   1213   1215      1
  1749   1214   1218      1
  1750   1215   1217      1
  1751   1216   1218      1
  1752   1216   2511      1
  1753   1217   1219      1
  1754   1218   1219      1
  1755   1218   1325      1
  1756   1219   1220      1
  1757   1219   1221      1
  1758   1220   1223      1
  1759   1220   1225      1
  1760   1221   2406      1
  1761   1221   2408      1
  1762   1222   1223      1
  1763   1224   1327      1
  1764   1224   2408      1
  1765   1224   2517      1
  1766   1225   1226      1
  1767   1226   1228      1
  1768   1226   1327      1
  1769   1227   1230      1
  1770   1227   2299      1
  1771   1228   1231      1
  1772   1229   1230      1
  1773   1229   1232      1
  1774   1229   2409      1
  1775   1230   1233      1
  1776   1231   1232      1
  1777   1231   1332      1
  1778   1232   1234      1
  1779   1233   2417      1
  1780   1234   1335      1
  1781   1234   2420      1
  1782   1235   1236      1
  1783   1236   1238      1
  1784   1236   1338      1
  1785   1237   1238      1
  1786   1238   1239      1
  1787   1239   1240      1
  1788   1239   1241      1
  1789   1240   1244      1
  1790   1240   1247      1
  1791   1241   1242      1
  1792   1241   1248      1
  1793   1242   1243      1
  1794   1242   1347      1
  1795   1243   1244      1
  1796   1243   1246      1
  1797   1244   1245      1
  1798   1245   2433      1
  1799   1246   2430      1
  1800   1246   2438      1
  1801   1247   1248      1
  1802   1247   1249      1
  1803   1249   1251      1
  1804   1250   1253      1
  1805   1250   2438      1
  1806   1250   2545      1
  1807   1252   1253      1
  1808   1252   2439      1
  1809   1253   1255      1
  1810   1254   2324      1
  1811   1254   2327      1
  1812   1255   1256      1
  1813   1255   1258      1
  1814   1256   1257      1
  1815   1258   1356      1
  1816   1258   2447      1
  1817   1259   1260      1
  1818   1259   2452      1
  1819   1260   1262      1
  1820   1261   1262      1
  1821   1262   1264      1
  1822   1263   1266      1
  1823   1263   1367      1
  1824   1263   2454      1
  1825   1264   1265      1
  1826   1264   1267      1
  1827   1264   1269      1
  1828   1265   1268      1
  1829   1265   1270      1
  1830   1266   1268      1
  1831   1266   1374      1
  1832   1268   1375      1
  1833   1269   1273      1
  1834   1269   2457      1
  1835   1270   1271      1
  1836   1270   1272      1
  1837   1271   1375      1
  1838   1273   1274      1
  1839   1273   2464      1
  1840   1274   1275      1
  1841   1275   1276      1
  1842   1275   1279      1
  1843   1276   1277      1
  1844   1276   1278      1
  1845   1277   2467      1
  1846   1277   2571      1
  1847   1278   1280      1
  1848   1278   1381      1
  1849   1279   1281      1
  1850   1280   1281      1
  1851   1280   1282      1
  1852   1281   1284      1
  1853   1282   1391      1
  1854   1283   1285      1
  1855   1283   2474      1
  1856   1283   2475      1
  1857   1284   1286      1
  1858   1284   1287      1
  1859   1285   1286      1
  1860   1285   1288      1
  1861   1287   1290      1
  1862   1288   1292      1
  1863   1288   2479      1
  1864   1289   1291      1
  1865   1289   1391      1
  1866   1290   1291      1
  1867   1290   1293      1
  1868   1291   1292      1
  1869   1292   1294      1
  1870   1294   1398      1
  1871   1294   1401      1
  1872   1295   1297      1
  1873   1296   1297      1
  1874   1296   2379      1
  1875   1297   1299      1
  1876   1298   1301      1
  1877   1298   1407      1
  1878   1299   1300      1
  1879   1300   1304      1
  1880   1300   2490      1
  1881   1301   1302      1
  1882   1301   1303      1
  1883   1302   1305      1
  1884   1302   1409      1
  1885   1303   1306      1
  1886   1304   1307      1
  1887   1304   2497      1
  1888   1305   1308      1
  1889   1305   1309      1
  1890   1306   1309      1
  1891   1308   1313      1
  1892   1308   2499      1
  1893   1309   1312      1
  1894   1310   1311      1
  1895   1312   1314      1
  1896   1312   1315      1
  1897   1313   1315      1
  1898   1313   2503      1
  1899   1314   1316      1
  1900   1315   1317      1
  1901   1316   1318      1
  1902   1317   1319      1
  1903   1317   1427      1
  1904   1318   1320      1
  1905   1319   1320      1
  1906   1319   1321      1
  1907   1320   1322      1
  1908   1321   1323      1
  1909   1321   1431      1
  1910   1322   1324      1
  1911   1323   1326      1
  1912   1323   2513      1
  1913   1324   1325      1
  1914   1324   1326      1
  1915   1325   1327      1
  1916   1326   1328      1
  1917   1328   1329      1
  1918   1329   1330      1
  1919   1329   2521      1
  1920   1330   1331      1
  1921   1330   1447      1
  1922   1331   1334      1
  1923   1331   2524      1
  1924   1332   1336      1
  1925   1333   1334      1
  1926   1333   1447      1
  1927   1333   1456      1
  1928   1334   1337      1
  1929   1335   1336      1
  1930   1335   2528      1
  1931   1336   1338      1
  1932   1337   2528      1
  1933   1337   2532      1
  1934   1338   1340      1
  1935   1339   1342      1
  1936   1339   1456      1
  1937   1339   1460      1
  1938   1339   2532      1
  1939   1340   1341      1
  1940   1341   1342      1
  1941   1342   1462      1
  1942   1343   1344      1
  1943   1343   2426      1
  1944   1344   1347      1
  1945   1344   2538      1
  1946   1345   1346      1
  1947   1346   1348      1
  1948   1346   1462      1
  1949   1347   1349      1
  1950   1348   1349      1
  1951   1348   1350      1
  1952   1349   1351      1
  1953   1350   1352      1
  1954   1350   2538      1
  1955   1352   1355      1
  1956   1352   2542      1
  1957   1353   1354      1
  1958   1353   1355      1
  1959   1353   1472      1
  1960   1354   1471      1
  1961   1355   1357      1
  1962   1356   1357      1
  1963   1356   2545      1
  1964   1357   1359      1
  1965   1358   1359      1
  1966   1358   1477      1
  1967   1358   1479      1
  1968   1359   1363      1
  1969   1360   1362      1
  1970   1360   1364      1
  1971   1361   1365      1
  1972   1362   1363      1
  1973   1362   1365      1
  1974   1364   1480      1
  1975   1366   1368      1
  1976   1366   1369      1
  1977   1367   1368      1
  1978   1367   2554      1
  1979   1368   1371      1
  1980   1369   1370      1
  1981   1370   1371      1
  1982   1370   1372      1
  1983   1371   1373      1
  1984   1372   1376      1
  1985   1373   1374      1
  1986   1373   1376      1
  1987   1375   1377      1
  1988   1376   1377      1
  1989   1376   1378      1
  1990   1377   1379      1
  1991   1378   1380      1
  1992   1378   1493      1
  1993   1379   1380      1
  1994   1379   1381      1
  1995   1380   1383      1
  1996   1381   1384      1
  1997   1382   1383      1
  1998   1382   1496      1
  1999   1382   2570      1
  2000   1383   1384      1
  2001   1383   1385      1
  2002   1384   1387      1
  2003   1385   1386      1
  2004   1385   1500      1
  2005   1386   1388      1
  2006   1387   1389      1
  2007   1387   1390      1
  2008   1388   1389      1
  2009   1389   1391      1
  2010   1390   1393      1
  2011   1390   2574      1
  2012   1392   1393      1
  2013   1392   1506      1
  2014   1392   1509      1
  2015   1393   1394      1
  2016   1394   1396      1
  2017   1394   1398      1
  2018   1395   1398      1
  2019   1395   2479      1
  2020   1395   2581      1
  2021   1396   1397      1
  2022   1397   1509      1
  2023   1399   1400      1
  2024   1399   1515      1
  2025   1399   2583      1
  2026   1400   1403      1
  2027   1400   1405      1
  2028   1401   1402      1
  2029   1401   1406      1
  2030   1402   1404      1
  2031   1403   1404      1
  2032   1403   1518      1
  2033   1405   1406      1
  2034   1405   2587      1
  2035   1406   1407      1
  2036   1407   1409      1
  2037   1408   1525      1
  2038   1408   2590      1
  2039   1409   1410      1
  2040   1409   1412      1
  2041   1410   1411      1
  2042   1410   2495      1
  2043   1411   1414      1
  2044   1411   2596      1
  2045   1412   1414      1
  2046   1412   1415      1
  2047   1413   1414      1
  2048   1413   1525      1
  2049   1413   1530      1
  2050   1414   1416      1
  2051   1416   1418      1
  2052   1416   1419      1
  2053   1417   1419      1
  2054   1417   1420      1
  2055   1417   1530      1
  2056   1418   1421      1
  2057   1418   2598      1
  2058   1419   1422      1
  2059   1421   1423      1
  2060   1421   2605      1
  2061   1422   1423      1
  2062   1422   1424      1
  2063   1423   1427      1
  2064   1424   1428      1
  2065   1425   1426      1
  2066   1425   1538      1
  2067   1425   2721      1
  2068   1426   1429      1
  2069   1426   1539      1
  2070   1427   1431      1
  2071   1428   1430      1
  2072   1429   1430      1
  2073   1429   1545      1
  2074   1430   1432      1
  2075   1431   2615      1
  2076   1432   1434      1
  2077   1432   1435      1
  2078   1433   1435      1
  2079   1434   1436      1
  2080   1434   2618      1
  2081   1435   1437      1
  2082   1436   1439      1
  2083   1436   1440      1
  2084   1437   1438      1
  2085   1437   1439      1
  2086   1438   1441      1
  2087   1439   1442      1
  2088   1440   1443      1
  2089   1440   2620      1
  2090   1441   1444      1
  2091   1442   1443      1
  2092   1442   1445      1
  2093   1443   1446      1
  2094   1444   1445      1
  2095   1445   1448      1
  2096   1446   1561      1
  2097   1446   2736      1
  2098   1447   1449      1
  2099   1448   1450      1
  2100   1448   1452      1
  2101   1449   1453      1
  2102   1449   2626      1
  2103   1450   1561      1
  2104   1450   1567      1
  2105   1451   1452      1
  2106   1451   1454      1
  2107   1452   1455      1
  2108   1453   1456      1
  2109   1453   1457      1
  2110   1454   1458      1
  2111   1455   1567      1
  2112   1456   1458      1
  2113   1457   2628      1
  2114   1457   2632      1
  2115   1458   1459      1
  2116   1459   1461      1
  2117   1460   2632      1
  2118   1460   2635      1
  2119   1461   1462      1
  2120   1461   1464      1
  2121   1463   1464      1
  2122   1463   1465      1
  2123   1463   1574      1
  2124   1464   1466      1
  2125   1466   1467      1
  2126   1466   1468      1
  2127   1467   1576      1
  2128   1467   2644      1
  2129   1468   1471      1
  2130   1468   1472      1
  2131   1469   1473      1
  2132   1469   1581      1
  2133   1470   1471      1
  2134   1472   2648      1
  2135   1473   1474      1
  2136   1474   1475      1
  2137   1474   1584      1
  2138   1475   1478      1
  2139   1475   1590      1
  2140   1476   1477      1
  2141   1476   1478      1
  2142   1476   2654      1
  2143   1477   2652      1
  2144   1478   1479      1
  2145   1479   1480      1
  2146   1481   1592      1
  2147   1481   1593      1
  2148   1482   1484      1
  2149   1482   1594      1
  2150   1483   1485      1
  2151   1484   1485      1
  2152   1484   1599      1
  2153   1485   1486      1
  2154   1486   1488      1
  2155   1487   1488      1
  2156   1487   1489      1
  2157   1487   1599      1
  2158   1488   1490      1
  2159   1489   1491      1
  2160   1489   2770      1
  2161   1490   1494      1
  2162   1491   1492      1
  2163   1491   2673      1
  2164   1492   1494      1
  2165   1492   1495      1
  2166   1493   1495      1
  2167   1493   1498      1
  2168   1494   1497      1
  2169   1495   1496      1
  2170   1496   2564      1
  2171   1497   1499      1
  2172   1497   1609      1
  2173   1498   1500      1
  2174   1499   1501      1
  2175   1499   1611      1
  2176   1500   1502      1
  2177   1501   1503      1
  2178   1501   1504      1
  2179   1502   1505      1
  2180   1503   2679      1
  2181   1503   2683      1
  2182   1504   1505      1
  2183   1504   1616      1
  2184   1506   1507      1
  2185   1506   2578      1
  2186   1507   1508      1
  2187   1507   2683      1
  2188   1508   1510      1
  2189   1508   1511      1
  2190   1509   1511      1
  2191   1510   1513      1
  2192   1510   1620      1
  2193   1511   1512      1
  2194   1513   1514      1
  2195   1513   1626      1
  2196   1514   1517      1
  2197   1514   2690      1
  2198   1515   1516      1
  2199   1515   2691      1
  2200   1516   1517      1
  2201   1516   1518      1
  2202   1517   1519      1
  2203   1518   1520      1
  2204   1519   1521      1
  2205   1519   1523      1
  2206   1520   1522      1
  2207   1521   1629      1
  2208   1521   2698      1
  2209   1522   1523      1
  2210   1523   1524      1
  2211   1524   1525      1
  2212   1524   1527      1
  2213   1526   1528      1
  2214   1526   2701      1
  2215   1526   2811      1
  2216   1527   1528      1
  2217   1527   1529      1
  2218   1528   1531      1
  2219   1529   1530      1
  2220   1529   1532      1
  2221   1531   1533      1
  2222   1531   1639      1
  2223   1532   1533      1
  2224   1532   1535      1
  2225   1533   1536      1
  2226   1534   1537      1
  2227   1535   1538      1
  2228   1535   1539      1
  2229   1536   2718      1
  2230   1536   2816      1
  2231   1537   1540      1
  2232   1537   1541      1
  2233   1538   2716      1
  2234   1538   2719      1
  2235   1539   1541      1
  2236   1540   1642      1
  2237   1541   1542      1
  2238   1542   1543      1
  2239   1542   1544      1
  2240   1543   1642      1
  2241   1543   1647      1
  2242   1544   1545      1
  2243   1544   1547      1
  2244   1545   1546      1
  2245   1546   1549      1
  2246   1547   1548      1
  2247   1547   1550      1
  2248   1548   1551      1
  2249   1548   1647      1
  2250   1549   1550      1
  2251   1549   1552      1
  2252   1550   1554      1
  2253   1551   1553      1
  2254   1551   1653      1
  2255   1552   1555      1
  2256   1553   1554      1
  2257   1553   1556      1
  2258   1554   1557      1
  2259   1555   1557      1
  2260   1556   1558      1
  2261   1556   2734      1
  2262   1557   1559      1
  2263   1558   1562      1
  2264   1558   1661      1
  2265   1559   1560      1
  2266   1559   1563      1
  2267   1560   1561      1
  2268   1560   1562      1
  2269   1562   1565      1
  2270   1563   1564      1
  2271   1564   1566      1
  2272   1564   1568      1
  2273   1565   1666      1
  2274   1565   2740      1
  2275   1566   1663      1
  2276   1567   1569      1
  2277   1568   1569      1
  2278   1568   1570      1
  2279   1569   1571      1
  2280   1570   1572      1
  2281   1570   1666      1
  2282   1571   1574      1
  2283   1571   2746      1
  2284   1572   1575      1
  2285   1572   1669      1
  2286   1573   1575      1
  2287   1574   1576      1
  2288   1575   1577      1
  2289   1576   2751      1
  2290   1577   1578      1
  2291   1577   1580      1
  2292   1578   1581      1
  2293   1579   1580      1
  2294   1579   2749      1
  2295   1579   2857      1
  2296   1580   1582      1
  2297   1581   1583      1
  2298   1582   1583      1
  2299   1582   1585      1
  2300   1583   1584      1
  2301   1584   1586      1
  2302   1585   1586      1
  2303   1585   1587      1
  2304   1586   1588      1
  2305   1586   2756      1
  2306   1587   1589      1
  2307   1587   1681      1
  2308   1588   1590      1
  2309   1588   1591      1
  2310   1589   1591      1
  2311   1589   1688      1
  2312   1590   1592      1
  2313   1591   1593      1
  2314   1594   1596      1
  2315   1595   1596      1
  2316   1595   1597      1
  2317   1596   1598      1
  2318   1597   1600      1
  2319   1597   1692      1
  2320   1598   1599      1
  2321   1598   1602      1
  2322   1600   1602      1
  2323   1600   2767      1
  2324   1601   1694      1
  2325   1601   1701      1
  2326   1602   2769      1
  2327   1603   1605      1
  2328   1603   1606      1
  2329   1603   1701      1
  2330   1604   1606      1
  2331   1605   1607      1
  2332   1605   2767      1
  2333   1606   1608      1
  2334   1607   2778      1
  2335   1607   2884      1
  2336   1608   1610      1
  2337   1608   1711      1
  2338   1609   1610      1
  2339   1610   1613      1
  2340   1611   1614      1
  2341   1611   2779      1
  2342   1612   1613      1
  2343   1612   1711      1
  2344   1612   1714      1
  2345   1613   1615      1
  2346   1614   1615      1
  2347   1614   2784      1
  2348   1615   1616      1
  2349   1616   1617      1
  2350   1617   1619      1
  2351   1618   1624      1
  2352   1618   1720      1
  2353   1618   2789      1
  2354   1619   1620      1
  2355   1619   1622      1
  2356   1620   1621      1
  2357   1621   1624      1
  2358   1621   1626      1
  2359   1621   2790      1
  2360   1622   1623      1
  2361   1622   1625      1
  2362   1623   1726      1
  2363   1624   1625      1
  2364   1624   2795      1
  2365   1625   1627      1
  2366   1626   2800      1
  2367   1627   1628      1
  2368   1627   1630      1
  2369   1628   1631      1
  2370   1628   1726      1
  2371   1629   1630      1
  2372   1629   2800      1
  2373   1630   1632      1
  2374   1631   1633      1
  2375   1632   1633      1
  2376   1632   1634      1
  2377   1633   1635      1
  2378   1634   1636      1
  2379   1637   1639      1
  2380   1637   2811      1
  2381   1637   2813      1
  2382   1638   1641      1
  2383   1638   1739      1
  2384   1639   2816      1
  2385   1640   1641      1
  2386   1640   2813      1
  2387   1640   2818      1
  2388   1641   1743      1
  2389   1642   1643      1
  2390   1643   1645      1
  2391   1644   1646      1
  2392   1644   1755      1
  2393   1645   1647      1
  2394   1645   1648      1
  2395   1646   1648      1
  2396   1646   1752      1
  2397   1648   1649      1
  2398   1649   1650      1
  2399   1649   1652      1
  2400   1650   1651      1
  2401   1650   2828      1
  2402   1651   1653      1
  2403   1651   2831      1
  2404   1652   1653      1
  2405   1652   1654      1
  2406   1654   1655      1
  2407   1654   1656      1
  2408   1655   1657      1
  2409   1655   1659      1
  2410   1656   1660      1
  2411   1657   1658      1
  2412   1657   1763      1
  2413   1658   1661      1
  2414   1658   2836      1
  2415   1659   1660      1
  2416   1659   1768      1
  2417   1661   1662      1
  2418   1662   1663      1
  2419   1662   1665      1
  2420   1664   1768      1
  2421   1664   1774      1
  2422   1665   1666      1
  2423   1665   1667      1
  2424   1667   1668      1
  2425   1667   2844      1
  2426   1668   1670      1
  2427   1668   2850      1
  2428   1669   1670      1
  2429   1669   1671      1
  2430   1670   1673      1
  2431   1672   1673      1
  2432   1672   1779      1
  2433   1673   1675      1
  2434   1674   1675      1
  2435   1674   2850      1
  2436   1674   2962      1
  2437   1675   1676      1
  2438   1676   1677      1
  2439   1677   1678      1
  2440   1677   1679      1
  2441   1678   1681      1
  2442   1678   2857      1
  2443   1679   1680      1
  2444   1679   1683      1
  2445   1680   1682      1
  2446   1680   1791      1
  2447   1681   2864      1
  2448   1682   1794      1
  2449   1682   2861      1
  2450   1682   2967      1
  2451   1683   1684      1
  2452   1683   1686      1
  2453   1685   1686      1
  2454   1685   1791      1
  2455   1685   1796      1
  2456   1687   1688      1
  2457   1687   1690      1
  2458   1687   2864      1
  2459   1689   1690      1
  2460   1689   1794      1
  2461   1689   1800      1
  2462   1691   1693      1
  2463   1692   1696      1
  2464   1693   1694      1
  2465   1693   1697      1
  2466   1695   1696      1
  2467   1695   1699      1
  2468   1695   2871      1
  2469   1696   1698      1
  2470   1697   1698      1
  2471   1697   1700      1
  2472   1698   1701      1
  2473   1699   1703      1
  2474   1699   2985      1
  2475   1700   1702      1
  2476   1702   1703      1
  2477   1702   1804      1
  2478   1703   1704      1
  2479   1704   1705      1
  2480   1704   1706      1
  2481   1705   1709      1
  2482   1705   2882      1
  2483   1706   1707      1
  2484   1706   1708      1
  2485   1707   1710      1
  2486   1708   1709      1
  2487   1708   1711      1
  2488   1709   2884      1
  2489   1710   1712      1
  2490   1712   1713      1
  2491   1712   1811      1
  2492   1713   1715      1
  2493   1713   1817      1
  2494   1714   1717      1
  2495   1715   1716      1
  2496   1715   1718      1
  2497   1716   1717      1
  2498   1717   1719      1
  2499   1718   1721      1
  2500   1718   1820      1
  2501   1719   1720      1
  2502   1719   1722      1
  2503   1720   2897      1
  2504   1721   1722      1
  2505   1721   1825      1
  2506   1722   1724      1
  2507   1723   1724      1
  2508   1723   1725      1
  2509   1723   2899      1
  2510   1724   1727      1
  2511   1724   1729      1
  2512   1725   3016      1
  2513   1725   3019      1
  2514   1726   1727      1
  2515   1727   1730      1
  2516   1728   1729      1
  2517   1728   1825      1
  2518   1728   1830      1
  2519   1729   1731      1
  2520   1730   1732      1
  2521   1730   2904      1
  2522   1731   1732      1
  2523   1731   1733      1
  2524   1732   1734      1
  2525   1733   1736      1
  2526   1733   1834      1
  2527   1734   1735      1
  2528   1734   1736      1
  2529   1735   2909      1
  2530   1735   2916      1
  2531   1736   1737      1
  2532   1737   1738      1
  2533   1737   1838      1
  2534   1738   1740      1
  2535   1738   1840      1
  2536   1739   1741      1
  2537   1740   1742      1
  2538   1741   1744      1
  2539   1742   1746      1
  2540   1742   1842      1
  2541   1743   1744      1
  2542   1743   1745      1
  2543   1744   1747      1
  2544   1745   1748      1
  2545   1745   2924      1
  2546   1746   1747      1
  2547   1746   1849      1
  2548   1747   1749      1
  2549   1748   1750      1
  2550   1748   2930      1
  2551   1749   1750      1
  2552   1749   1751      1
  2553   1750   1752      1
  2554   1751   1753      1
  2555   1751   1755      1
  2556   1752   1754      1
  2557   1753   1757      1
  2558   1753   1853      1
  2559   1754   2828      1
  2560   1754   2934      1
  2561   1755   1759      1
  2562   1756   1758      1
  2563   1756   1858      1
  2564   1756   2936      1
  2565   1757   1760      1
  2566   1758   1760      1
  2567   1759   1761      1
  2568   1760   1761      1
  2569   1762   1764      1
  2570   1762   1765      1
  2571   1762   2941      1
  2572   1763   1764      1
  2573   1763   2944      1
  2574   1764   1766      1
  2575   1765   1767      1
  2576   1765   1868      1
  2577   1766   1768      1
  2578   1766   1769      1
  2579   1767   1769      1
  2580   1767   1771      1
  2581   1769   1770      1
  2582   1770   1871      1
  2583   1771   1772      1
  2584   1771   2948      1
  2585   1772   1773      1
  2586   1772   2953      1
  2587   1773   1775      1
  2588   1774   1775      1
  2589   1775   1776      1
  2590   1776   1777      1
  2591   1776   1778      1
  2592   1777   1779      1
  2593   1778   1780      1
  2594   1780   2962      1
  2595   1781   1782      1
  2596   1781   1784      1
  2597   1781   1887      1
  2598   1782   1786      1
  2599   1783   1784      1
  2600   1783   1890      1
  2601   1783   3077      1
  2602   1784   1785      1
  2603   1785   1787      1
  2604   1785   1788      1
  2605   1786   1787      1
  2606   1787   1789      1
  2607   1788   1792      1
  2608   1788   2967      1
  2609   1789   1791      1
  2610   1789   1793      1
  2611   1790   1792      1
  2612   1790   1898      1
  2613   1790   2970      1
  2614   1792   1795      1
  2615   1793   1796      1
  2616   1794   1795      1
  2617   1795   1798      1
  2618   1797   1799      1
  2619   1797   1900      1
  2620   1798   1800      1
  2621   1798   2976      1
  2622   1801   1802      1
  2623   1801   1803      1
  2624   1802   2978      1
  2625   1802   2981      1
  2626   1803   1905      1
  2627   1803   1907      1
  2628   1804   1805      1
  2629   1805   1810      1
  2630   1806   1807      1
  2631   1806   1809      1
  2632   1806   2989      1
  2633   1807   1808      1
  2634   1807   2992      1
  2635   1808   1917      1
  2636   1808   1922      1
  2637   1809   1810      1
  2638   1809   1811      1
  2639   1810   1812      1
  2640   1811   2999      1
  2641   1812   1813      1
  2642   1812   1814      1
  2643   1813   1815      1
  2644   1813   1922      1
  2645   1815   1818      1
  2646   1815   1927      1
  2647   1816   1817      1
  2648   1816   3003      1
  2649   1816   3007      1
  2650   1817   1820      1
  2651   1818   1819      1
  2652   1819   1821      1
  2653   1819   1930      1
  2654   1820   1822      1
  2655   1821   1822      1
  2656   1821   1823      1
  2657   1822   1824      1
  2658   1823   1826      1
  2659   1823   1934      1
  2660   1824   1825      1
  2661   1824   1827      1
  2662   1826   1827      1
  2663   1826   1938      1
  2664   1827   1828      1
  2665   1828   1830      1
  2666   1828   1831      1
  2667   1829   1831      1
  2668   1829   1938      1
  2669   1829   1941      1
  2670   1830   1834      1
  2671   1831   1833      1
  2672   1832   1833      1
  2673   1832   3020      1
  2674   1832   3024      1
  2675   1833   1835      1
  2676   1834   1835      1
  2677   1835   1836      1
  2678   1836   1837      1
  2679   1836   1838      1
  2680   1837   3024      1
  2681   1837   3029      1
  2682   1838   2915      1
  2683   1839   1840      1
  2684   1840   1842      1
  2685   1841   1844      1
  2686   1841   3030      1
  2687   1841   3136      1
  2688   1842   1843      1
  2689   1843   1846      1
  2690   1844   1847      1
  2691   1844   3036      1
  2692   1845   1848      1
  2693   1845   1954      1
  2694   1846   1848      1
  2695   1846   1849      1
  2696   1847   1850      1
  2697   1847   1956      1
  2698   1848   1852      1
  2699   1849   1853      1
  2700   1850   1851      1
  2701   1850   1854      1
  2702   1851   1855      1
  2703   1851   3038      1
  2704   1852   1854      1
  2705   1852   1856      1
  2706   1854   1857      1
  2707   1855   1858      1
  2708   1855   2933      1
  2709   1856   1859      1
  2710   1857   1860      1
  2711   1857   1861      1
  2712   1858   1861      1
  2713   1859   1965      1
  2714   1860   1863      1
  2715   1860   1964      1
  2716   1860   3044      1
  2717   1861   1862      1
  2718   1862   1863      1
  2719   1862   3050      1
  2720   1863   1864      1
  2721   1864   1867      1
  2722   1864   1970      1
  2723   1865   1969      1
  2724   1865   1971      1
  2725   1866   1868      1
  2726   1866   2943      1
  2727   1866   3050      1
  2728   1867   1869      1
  2729   1867   3057      1
  2730   1868   1870      1
  2731   1869   1971      1
  2732   1869   1975      1
  2733   1870   1873      1
  2734   1870   1874      1
  2735   1871   1872      1
  2736   1872   1874      1
  2737   1873   3057      1
  2738   1873   3063      1
  2739   1874   1875      1
  2740   1875   1876      1
  2741   1875   1877      1
  2742   1876   1878      1
  2743   1876   1977      1
  2744   1877   1879      1
  2745   1877   3063      1
  2746   1878   1880      1
  2747   1878   1881      1
  2748   1879   1881      1
  2749   1879   3068      1
  2750   1880   1883      1
  2751   1881   1885      1
  2752   1881   1984      1
  2753   1882   1884      1
  2754   1883   1884      1
  2755   1883   1886      1
  2756   1884   1887      1
  2757   1885   1886      1
  2758   1885   1989      1
  2759   1886   1889      1
  2760   1887   1888      1
  2761   1888   1889      1
  2762   1888   1890      1
  2763   1889   1891      1
  2764   1890   3073      1
  2765   1891   1989      1
  2766   1891   3076      1
  2767   1892   1894      1
  2768   1893   1895      1
  2769   1893   3076      1
  2770   1893   3081      1
  2771   1894   1895      1
  2772   1894   1896      1
  2773   1895   1997      1
  2774   1896   1897      1
  2775   1897   1898      1
  2776   1897   1900      1
  2777   1898   1899      1
  2778   1899   3081      1
  2779   1899   3085      1
  2780   1900   1901      1
  2781   1901   1902      1
  2782   1902   1903      1
  2783   1902   1904      1
  2784   1905   1906      1
  2785   1906   1909      1
  2786   1907   1908      1
  2787   1907   1910      1
  2788   1908   1913      1
  2789   1908   2981      1
  2790   1909   1910      1
  2791   1909   1912      1
  2792   1910   1914      1
  2793   1911   1916      1
  2794   1911   2014      1
  2795   1911   3094      1
  2796   1912   1915      1
  2797   1913   1914      1
  2798   1913   2992      1
  2799   1914   1917      1
  2800   1915   1917      1
  2801   1916   1918      1
  2802   1916   3099      1
  2803   1918   1920      1
  2804   1918   2016      1
  2805   1919   1921      1
  2806   1919   3099      1
  2807   1919   3103      1
  2808   1920   1921      1
  2809   1920   1923      1
  2810   1921   1924      1
  2811   1922   1924      1
  2812   1923   1925      1
  2813   1923   2022      1
  2814   1924   1926      1
  2815   1925   1926      1
  2816   1925   1928      1
  2817   1926   1927      1
  2818   1928   2024      1
  2819   1929   1930      1
  2820   1929   3008      1
  2821   1929   3108      1
  2822   1930   1932      1
  2823   1931   1932      1
  2824   1931   1933      1
  2825   1931   3111      1
  2826   1932   1934      1
  2827   1933   1935      1
  2828   1933   2030      1
  2829   1934   1936      1
  2830   1935   1937      1
  2831   1935   2038      1
  2832   1935   3121      1
  2833   1936   1937      1
  2834   1936   1938      1
  2835   1937   1939      1
  2836   1939   1940      1
  2837   1939   2042      1
  2838   1940   1942      1
  2839   1941   1943      1
  2840   1941   1944      1
  2841   1942   1944      1
  2842   1943   1945      1
  2843   1943   3124      1
  2844   1944   1946      1
  2845   1945   1946      1
  2846   1945   3128      1
  2847   1946   1948      1
  2848   1947   1948      1
  2849   1948   1949      1
  2850   1949   2052      1
  2851   1949   2053      1
  2852   1950   1951      1
  2853   1950   3136      1
  2854   1950   3139      1
  2855   1951   1952      1
  2856   1951   1953      1
  2857   1952   2061      1
  2858   1952   3141      1
  2859   1953   1954      1
  2860   1953   1955      1
  2861   1954   1956      1
  2862   1955   1957      1
  2863   1956   1958      1
  2864   1957   1959      1
  2865   1957   1960      1
  2866   1958   1959      1
  2867   1958   3151      1
  2868   1959   1962      1
  2869   1960   1961      1
  2870   1961   1963      1
  2871   1961   2070      1
  2872   1962   1963      1
  2873   1962   1964      1
  2874   1963   1966      1
  2875   1964   1965      1
  2876   1964   1967      1
  2877   1965   1969      1
  2878   1966   1968      1
  2879   1966   2077      1
  2880   1967   1968      1
  2881   1967   1970      1
  2882   1968   3155      1
  2883   1970   3159      1
  2884   1971   1973      1
  2885   1972   1973      1
  2886   1974   1975      1
  2887   1974   3059      1
  2888   1974   3161      1
  2889   1975   1977      1
  2890   1976   1980      1
  2891   1976   2085      1
  2892   1977   1982      1
  2893   1978   1980      1
  2894   1978   1981      1
  2895   1978   2089      1
  2896   1979   1981      1
  2897   1979   2090      1
  2898   1979   3165      1
  2899   1980   1983      1
  2900   1981   1982      1
  2901   1981   1985      1
  2902   1982   1984      1
  2903   1983   2096      1
  2904   1984   1986      1
  2905   1985   1986      1
  2906   1985   2099      1
  2907   1985   3171      1
  2908   1986   1987      1
  2909   1987   1988      1
  2910   1987   1991      1
  2911   1988   1992      1
  2912   1988   2100      1
  2913   1989   3177      1
  2914   1990   1991      1
  2915   1990   2101      1
  2916   1990   3176      1
  2917   1991   1993      1
  2918   1993   1994      1
  2919   1993   2105      1
  2920   1994   1995      1
  2921   1994   1996      1
  2922   1995   1999      1
  2923   1996   2000      1
  2924   1996   2107      1
  2925   1997   1998      1
  2926   1997   1999      1
  2927   1998   2002      1
  2928   1998   3186      1
  2929   1999   2001      1
  2930   1999   2003      1
  2931   2000   2003      1
  2932   2000   2118      1
  2933   2002   2004      1
  2934   2002   3190      1
  2935   2003   2004      1
  2936   2003   2005      1
  2937   2004   2006      1
  2938   2005   2007      1
  2939   2006   2120      1
  2940   2007   2122      1
  2941   2008   2009      1
  2942   2008   3199      1
  2943   2009   2010      1
  2944   2009   2014      1
  2945   2010   2011      1
  2946   2010   2012      1
  2947   2012   2013      1
  2948   2012   2015      1
  2949   2012   2125      1
  2950   2013   2129      1
  2951   2014   2016      1
  2952   2015   2017      1
  2953   2015   2018      1
  2954   2016   2018      1
  2955   2017   2133      1
  2956   2017   3209      1
  2957   2018   2019      1
  2958   2019   2020      1
  2959   2019   2021      1
  2960   2020   3211      1
  2961   2020   3216      1
  2962   2021   2022      1
  2963   2021   2023      1
  2964   2022   2024      1
  2965   2023   2025      1
  2966   2023   2136      1
  2967   2025   2029      1
  2968   2026   2027      1
  2969   2026   2028      1
  2970   2026   3216      1
  2971   2027   2029      1
  2972   2028   2030      1
  2973   2028   3110      1
  2974   2029   2031      1
  2975   2030   3225      1
  2976   2031   2032      1
  2977   2031   2034      1
  2978   2033   2034      1
  2979   2033   3223      1
  2980   2033   3339      1
  2981   2034   2036      1
  2982   2035   2036      1
  2983   2035   2038      1
  2984   2035   3225      1
  2985   2036   2040      1
  2986   2037   2039      1
  2987   2037   2041      1
  2988   2038   2042      1
  2989   2039   2150      1
  2990   2040   2043      1
  2991   2040   3231      1
  2992   2041   2045      1
  2993   2042   2044      1
  2994   2043   2152      1
  2995   2043   3354      1
  2996   2044   2046      1
  2997   2044   2047      1
  2998   2045   2046      1
  2999   2046   2048      1
  3000   2047   2049      1
  3001   2047   3234      1
  3002   2048   2050      1
  3003   2048   2051      1
  3004   2049   2051      1
  3005   2049   3237      1
  3006   2050   2158      1
  3007   2051   2055      1
  3008   2052   2054      1
  3009   2052   2055      1
  3010   2053   2056      1
  3011   2053   3129      1
  3012   2055   2056      1
  3013   2055   2057      1
  3014   2056   3243      1
  3015   2057   2058      1
  3016   2057   2059      1
  3017   2059   2162      1
  3018   2060   2061      1
  3019   2061   2064      1
  3020   2062   2064      1
  3021   2062   3251      1
  3022   2062   3252      1
  3023   2063   2162      1
  3024   2063   3252      1
  3025   2063   3370      1
  3026   2065   2066      1
  3027   2065   2169      1
  3028   2066   2067      1
  3029   2066   2068      1
  3030   2067   2070      1
  3031   2068   2069      1
  3032   2068   2172      1
  3033   2069   2071      1
  3034   2069   3254      1
  3035   2070   2072      1
  3036   2071   2072      1
  3037   2071   3260      1
  3038   2072   2074      1
  3039   2073   2076      1
  3040   2073   2176      1
  3041   2073   3382      1
  3042   2074   2077      1
  3043   2074   2078      1
  3044   2075   2078      1
  3045   2075   2181      1
  3046   2076   2078      1
  3047   2076   2080      1
  3048   2077   2079      1
  3049   2078   2081      1
  3050   2079   2082      1
  3051   2080   2083      1
  3052   2080   3272      1
  3053   2081   2082      1
  3054   2081   2083      1
  3055   2083   2084      1
  3056   2083   2186      1
  3057   2084   2086      1
  3058   2084   3277      1
  3059   2085   2087      1
  3060   2086   2087      1
  3061   2086   2089      1
  3062   2087   2088      1
  3063   2088   2193      1
  3064   2089   2090      1
  3065   2090   3278      1
  3066   2091   2092      1
  3067   2091   2098      1
  3068   2091   3283      1
  3069   2092   2093      1
  3070   2092   2197      1
  3071   2093   2094      1
  3072   2093   2202      1
  3073   2094   2095      1
  3074   2095   2096      1
  3075   2095   2097      1
  3076   2096   2100      1
  3077   2097   2098      1
  3078   2097   2099      1
  3079   2098   3290      1
  3080   2099   2101      1
  3081   2101   2102      1
  3082   2102   2103      1
  3083   2102   2105      1
  3084   2103   2106      1
  3085   2103   3294      1
  3086   2104   2106      1
  3087   2104   2208      1
  3088   2104   2214      1
  3089   2105   2108      1
  3090   2106   2109      1
  3091   2107   2110      1
  3092   2108   2109      1
  3093   2108   2111      1
  3094   2109   2114      1
  3095   2109   3299      1
  3096   2110   2112      1
  3097   2111   2115      1
  3098   2111   3302      1
  3099   2112   2113      1
  3100   2112   2114      1
  3101   2112   2117      1
  3102   2113   2216      1
  3103   2113   2220      1
  3104   2114   2115      1
  3105   2114   2116      1
  3106   2115   2120      1
  3107   2116   2121      1
  3108   2116   2220      1
  3109   2117   2118      1
  3110   2117   2119      1
  3111   2118   2122      1
  3112   2120   2123      1
  3113   2121   2224      1
  3114   2121   3309      1
  3115   2123   3309      1
  3116   2124   2125      1
  3117   2124   2126      1
  3118   2126   2127      1
  3119   2126   3319      1
  3120   2127   2128      1
  3121   2127   3320      1
  3122   2128   2130      1
  3123   2128   2234      1
  3124   2129   2131      1
  3125   2130   2132      1
  3126   2130   2134      1
  3127   2131   2132      1
  3128   2131   2133      1
  3129   2133   2134      1
  3130   2133   2136      1
  3131   2134   2135      1
  3132   2135   2137      1
  3133   2135   3328      1
  3134   2136   2138      1
  3135   2137   2138      1
  3136   2137   3336      1
  3137   2138   2141      1
  3138   2139   2140      1
  3139   2140   2141      1
  3140   2140   2142      1
  3141   2141   2143      1
  3142   2142   2144      1
  3143   2142   2247      1
  3144   2143   2144      1
  3145   2143   3338      1
  3146   2144   2145      1
  3147   2145   2146      1
  3148   2145   2147      1
  3149   2146   2249      1
  3150   2146   2255      1
  3151   2147   2148      1
  3152   2147   3342      1
  3153   2148   3346      1
  3154   2149   2151      1
  3155   2150   2151      1
  3156   2150   2152      1
  3157   2151   2153      1
  3158   2152   2154      1
  3159   2153   2154      1
  3160   2153   2155      1
  3161   2154   2157      1
  3162   2155   2263      1
  3163   2156   2262      1
  3164   2156   3349      1
  3165   2156   3355      1
  3166   2157   3354      1
  3167   2157   3356      1
  3168   2158   2159      1
  3169   2159   2160      1
  3170   2160   2161      1
  3171   2161   2163      1
  3172   2161   2164      1
  3173   2162   2163      1
  3174   2163   2166      1
  3175   2164   2165      1
  3176   2165   2167      1
  3177   2165   2277      1
  3178   2166   2167      1
  3179   2166   2170      1
  3180   2167   2168      1
  3181   2168   2278      1
  3182   2168   3372      1
  3183   2169   2171      1
  3184   2170   3370      1
  3185   2170   3372      1
  3186   2171   2172      1
  3187   2172   2174      1
  3188   2173   2175      1
  3189   2173   2286      1
  3190   2174   2175      1
  3191   2174   2176      1
  3192   2175   2177      1
  3193   2176   2179      1
  3194   2177   2178      1
  3195   2177   2179      1
  3196   2178   2290      1
  3197   2178   2294      1
  3198   2179   2180      1
  3199   2180   2183      1
  3200   2180   3387      1
  3201   2181   2182      1
  3202   2182   2185      1
  3203   2183   2184      1
  3204   2183   2187      1
  3205   2184   2186      1
  3206   2184   3389      1
  3207   2185   2188      1
  3208   2185   2190      1
  3209   2186   2190      1
  3210   2187   2189      1
  3211   2187   2191      1
  3212   2188   2191      1
  3213   2189   2300      1
  3214   2189   3390      1
  3215   2190   2193      1
  3216   2191   2192      1
  3217   2192   2301      1
  3218   2192   2302      1
  3219   2193   2194      1
  3220   2194   2195      1
  3221   2194   2196      1
  3222   2195   2197      1
  3223   2195   2198      1
  3224   2196   2200      1
  3225   2197   3401      1
  3226   2198   2199      1
  3227   2198   2201      1
  3228   2199   2308      1
  3229   2199   3521      1
  3230   2200   2201      1
  3231   2201   2309      1
  3232   2202   2203      1
  3233   2203   2205      1
  3234   2203   2206      1
  3235   2204   2205      1
  3236   2204   2207      1
  3237   2204   3410      1
  3238   2205   2208      1
  3239   2206   2209      1
  3240   2207   2209      1
  3241   2207   2210      1
  3242   2209   2212      1
  3243   2210   2211      1
  3244   2210   2317      1
  3245   2211   3418      1
  3246   2211   3423      1
  3247   2212   2213      1
  3248   2212   2215      1
  3249   2213   2320      1
  3250   2214   2215      1
  3251   2214   2216      1
  3252   2215   2217      1
  3253   2217   2218      1
  3254   2217   2219      1
  3255   2217   2221      1
  3256   2218   2322      1
  3257   2218   2328      1
  3258   2219   2223      1
  3259   2220   2221      1
  3260   2221   2222      1
  3261   2222   2224      1
  3262   2222   3428      1
  3263   2223   2225      1
  3264   2224   3436      1
  3265   2226   2229      1
  3266   2227   2228      1
  3267   2227   3438      1
  3268   2228   2229      1
  3269   2228   2230      1
  3270   2229   2231      1
  3271   2230   3439      1
  3272   2231   2233      1
  3273   2232   2235      1
  3274   2232   3320      1
  3275   2232   3447      1
  3276   2233   2236      1
  3277   2233   2237      1
  3278   2234   2235      1
  3279   2234   2236      1
  3280   2235   2238      1
  3281   2237   2238      1
  3282   2238   2239      1
  3283   2239   3449      1
  3284   2242   2244      1
  3285   2243   2244      1
  3286   2243   2245      1
  3287   2244   2246      1
  3288   2245   3461      1
  3289   2246   2247      1
  3290   2246   2248      1
  3291   2247   2249      1
  3292   2250   2251      1
  3293   2250   2252      1
  3294   2250   3464      1
  3295   2251   2253      1
  3296   2252   2254      1
  3297   2252   3469      1
  3298   2253   2254      1
  3299   2254   2257      1
  3300   2255   2256      1
  3301   2256   2258      1
  3302   2257   2258      1
  3303   2257   2259      1
  3304   2258   2260      1
  3305   2259   2261      1
  3306   2259   3472      1
  3307   2260   2263      1
  3308   2260   2265      1
  3309   2261   2262      1
  3310   2261   3479      1
  3311   2262   2263      1
  3312   2264   2265      1
  3313   2265   2266      1
  3314   2266   2267      1
  3315   2266   2268      1
  3316   2268   2269      1
  3317   2268   2270      1
  3318   2270   2272      1
  3319   2272   2273      1
  3320   2272   2275      1
  3321   2273   2276      1
  3322   2274   2276      1
  3323   2274   2278      1
  3324   2274   3491      1
  3325   2275   2279      1
  3326   2276   2280      1
  3327   2276   3494      1
  3328   2277   2281      1
  3329   2278   2284      1
  3330   2279   2280      1
  3331   2279   2283      1
  3332   2280   2282      1
  3333   2281   2285      1
  3334   2281   2286      1
  3335   2282   2287      1
  3336   2283   2285      1
  3337   2283   2289      1
  3338   2284   2287      1
  3339   2284   2288      1
  3340   2286   2288      1
  3341   2287   3498      1
  3342   2288   2290      1
  3343   2290   2291      1
  3344   2291   2295      1
  3345   2291   3498      1
  3346   2292   2293      1
  3347   2292   2296      1
  3348   2293   2294      1
  3349   2294   2298      1
  3350   2295   2298      1
  3351   2295   3507      1
  3352   2296   2297      1
  3353   2296   2298      1
  3354   2299   2406      1
  3355   2300   2302      1
  3356   2300   3512      1
  3357   2301   2303      1
  3358   2302   2304      1
  3359   2303   2306      1
  3360   2304   2305      1
  3361   2304   2306      1
  3362   2305   3516      1
  3363   2306   2307      1
  3364   2307   2310      1
  3365   2308   2309      1
  3366   2308   2311      1
  3367   2309   2312      1
  3368   2310   2312      1
  3369   2310   2313      1
  3370   2311   3524      1
  3371   2312   2314      1
  3372   2313   2315      1
  3373   2314   2316      1
  3374   2314   2317      1
  3375   2315   2316      1
  3376   2316   2319      1
  3377   2317   2318      1
  3378   2318   2319      1
  3379   2318   3534      1
  3380   2320   2321      1
  3381   2320   2322      1
  3382   2321   2323      1
  3383   2322   2325      1
  3384   2323   2325      1
  3385   2323   2327      1
  3386   2324   2326      1
  3387   2324   3536      1
  3388   2325   2326      1
  3389   2326   3537      1
  3390   2328   2329      1
  3391   2328   2330      1
  3392   2329   2331      1
  3393   2330   2332      1
  3394   2330   3541      1
  3395   2331   2332      1
  3396   2333   2337      1
  3397   2333   3651      1
  3398   2334   2338      1
  3399   2335   2337      1
  3400   2335   2452      1
  3401   2336   2340      1
  3402   2337   2341      1
  3403   2337   2453      1
  3404   2338   2339      1
  3405   2339   2341      1
  3406   2339   2342      1
  3407   2340   2342      1
  3408   2340   2343      1
  3409   2341   2346      1
  3410   2341   3551      1
  3411   2342   2344      1
  3412   2343   2345      1
  3413   2344   2345      1
  3414   2344   2346      1
  3415   2346   2348      1
  3416   2346   2459      1
  3417   2347   3560      1
  3418   2348   2351      1
  3419   2348   3557      1
  3420   2349   2350      1
  3421   2349   2352      1
  3422   2350   2353      1
  3423   2351   2354      1
  3424   2351   2356      1
  3425   2351   2463      1
  3426   2352   2354      1
  3427   2352   2355      1
  3428   2353   2354      1
  3429   2355   3560      1
  3430   2355   3565      1
  3431   2356   2357      1
  3432   2356   2470      1
  3433   2357   2361      1
  3434   2357   3565      1
  3435   2358   2362      1
  3436   2359   2360      1
  3437   2360   2362      1
  3438   2360   2363      1
  3439   2361   2364      1
  3440   2361   3665      1
  3441   2362   2364      1
  3442   2363   2365      1
  3443   2363   2472      1
  3444   2364   3577      1
  3445   2365   2366      1
  3446   2365   2367      1
  3447   2366   2475      1
  3448   2367   2368      1
  3449   2367   2370      1
  3450   2368   2369      1
  3451   2368   2371      1
  3452   2369   3577      1
  3453   2369   3582      1
  3454   2370   2372      1
  3455   2371   2373      1
  3456   2372   2373      1
  3457   2373   2374      1
  3458   2374   2375      1
  3459   2374   2376      1
  3460   2375   2377      1
  3461   2376   2378      1
  3462   2377   2379      1
  3463   2377   2380      1
  3464   2378   2382      1
  3465   2379   2490      1
  3466   2380   2381      1
  3467   2380   2383      1
  3468   2381   2491      1
  3469   2381   3687      1
  3470   2382   2383      1
  3471   2382   2386      1
  3472   2383   2384      1
  3473   2384   2385      1
  3474   2386   3593      1
  3475   2387   2388      1
  3476   2387   2389      1
  3477   2387   2498      1
  3478   2388   2391      1
  3479   2388   2497      1
  3480   2389   2392      1
  3481   2389   3600      1
  3482   2390   2391      1
  3483   2390   2393      1
  3484   2391   2394      1
  3485   2392   2394      1
  3486   2392   2395      1
  3487   2393   2396      1
  3488   2394   2397      1
  3489   2395   2398      1
  3490   2395   3603      1
  3491   2396   2397      1
  3492   2397   2398      1
  3493   2398   2399      1
  3494   2399   2400      1
  3495   2399   2401      1
  3496   2400   2402      1
  3497   2400   3608      1
  3498   2401   2403      1
  3499   2401   2509      1
  3500   2402   2403      1
  3501   2402   3615      1
  3502   2403   2404      1
  3503   2404   2405      1
  3504   2404   2407      1
  3505   2405   2520      1
  3506   2405   3712      1
  3507   2407   3615      1
  3508   2407   3618      1
  3509   2408   2409      1
  3510   2409   2412      1
  3511   2410   2411      1
  3512   2410   2412      1
  3513   2410   2522      1
  3514   2411   2414      1
  3515   2411   3618      1
  3516   2412   2413      1
  3517   2413   2415      1
  3518   2413   2416      1
  3519   2414   2525      1
  3520   2414   3623      1
  3521   2415   2417      1
  3522   2416   2419      1
  3523   2416   3622      1
  3524   2417   2420      1
  3525   2418   2419      1
  3526   2418   2421      1
  3527   2418   2525      1
  3528   2419   2422      1
  3529   2420   2423      1
  3530   2421   2423      1
  3531   2421   2529      1
  3532   2422   2424      1
  3533   2422   3523      1
  3534   2423   2424      1
  3535   2423   2426      1
  3536   2424   2425      1
  3537   2425   2429      1
  3538   2426   2430      1
  3539   2427   2428      1
  3540   2427   2431      1
  3541   2427   3632      1
  3542   2428   2432      1
  3543   2428   3633      1
  3544   2429   2430      1
  3545   2429   2433      1
  3546   2431   2434      1
  3547   2431   2535      1
  3548   2432   2435      1
  3549   2433   2437      1
  3550   2434   2435      1
  3551   2434   2436      1
  3552   2435   3640      1
  3553   2436   2440      1
  3554   2436   2541      1
  3555   2437   2439      1
  3556   2438   2439      1
  3557   2440   2441      1
  3558   2440   2442      1
  3559   2441   2443      1
  3560   2441   3642      1
  3561   2442   2444      1
  3562   2442   2545      1
  3563   2443   2444      1
  3564   2443   2445      1
  3565   2444   2446      1
  3566   2445   2448      1
  3567   2445   3647      1
  3568   2446   2447      1
  3569   2446   2449      1
  3570   2448   2449      1
  3571   2450   2451      1
  3572   2450   2453      1
  3573   2451   2454      1
  3574   2452   2456      1
  3575   2453   2455      1
  3576   2453   2459      1
  3577   2454   2457      1
  3578   2455   2458      1
  3579   2455   3653      1
  3580   2456   2457      1
  3581   2456   2459      1
  3582   2458   2460      1
  3583   2458   2557      1
  3584   2459   2461      1
  3585   2460   2461      1
  3586   2460   2462      1
  3587   2461   2463      1
  3588   2462   2466      1
  3589   2462   2561      1
  3590   2463   2465      1
  3591   2464   2465      1
  3592   2464   2467      1
  3593   2465   2468      1
  3594   2466   2467      1
  3595   2466   2468      1
  3596   2466   2566      1
  3597   2468   2469      1
  3598   2469   2471      1
  3599   2469   3664      1
  3600   2470   2471      1
  3601   2470   2472      1
  3602   2471   2473      1
  3603   2472   2475      1
  3604   2473   3665      1
  3605   2473   3669      1
  3606   2474   2477      1
  3607   2474   2571      1
  3608   2476   2478      1
  3609   2476   3669      1
  3610   2477   2478      1
  3611   2477   2479      1
  3612   2478   2579      1
  3613   2480   2481      1
  3614   2480   2482      1
  3615   2481   3583      1
  3616   2481   3680      1
  3617   2482   2483      1
  3618   2482   2485      1
  3619   2484   2485      1
  3620   2484   2486      1
  3621   2484   3680      1
  3622   2485   2488      1
  3623   2486   2487      1
  3624   2486   3803      1
  3625   2487   2488      1
  3626   2487   2589      1
  3627   2488   2489      1
  3628   2489   2490      1
  3629   2489   2491      1
  3630   2491   2492      1
  3631   2492   2494      1
  3632   2492   3688      1
  3633   2493   2494      1
  3634   2493   2495      1
  3635   2493   2589      1
  3636   2494   2593      1
  3637   2495   2499      1
  3638   2496   2497      1
  3639   2496   2498      1
  3640   2496   2500      1
  3641   2498   3692      1
  3642   2499   2500      1
  3643   2500   2501      1
  3644   2501   2502      1
  3645   2501   2599      1
  3646   2502   2504      1
  3647   2502   3698      1
  3648   2503   2505      1
  3649   2503   2603      1
  3650   2504   2505      1
  3651   2504   3702      1
  3652   2505   2506      1
  3653   2506   2507      1
  3654   2507   2508      1
  3655   2508   2509      1
  3656   2508   2511      1
  3657   2509   2512      1
  3658   2510   2512      1
  3659   2510   3710      1
  3660   2510   3711      1
  3661   2511   2517      1
  3662   2512   2518      1
  3663   2513   2516      1
  3664   2513   2615      1
  3665   2514   2515      1
  3666   2514   2516      1
  3667   2514   2616      1
  3668   2515   3711      1
  3669   2515   3841      1
  3670   2516   2519      1
  3671   2517   2518      1
  3672   2518   2519      1
  3673   2518   2520      1
  3674   2519   2521      1
  3675   2520   2522      1
  3676   2521   2523      1
  3677   2522   2523      1
  3678   2523   2524      1
  3679   2525   2526      1
  3680   2526   2527      1
  3681   2526   3727      1
  3682   2527   2529      1
  3683   2527   2531      1
  3684   2528   2529      1
  3685   2530   2531      1
  3686   2530   2630      1
  3687   2530   3728      1
  3688   2531   2533      1
  3689   2532   2533      1
  3690   2533   2534      1
  3691   2534   2635      1
  3692   2534   2636      1
  3693   2535   2536      1
  3694   2535   3736      1
  3695   2536   2537      1
  3696   2536   2540      1
  3697   2537   2539      1
  3698   2537   3738      1
  3699   2538   2540      1
  3700   2539   2636      1
  3701   2539   2643      1
  3702   2540   2541      1
  3703   2541   2542      1
  3704   2542   2545      1
  3705   2543   2544      1
  3706   2543   2643      1
  3707   2543   2650      1
  3708   2544   2546      1
  3709   2544   3747      1
  3710   2546   2547      1
  3711   2546   3751      1
  3712   2547   2548      1
  3713   2547   2652      1
  3714   2548   2549      1
  3715   2548   2550      1
  3716   2549   3757      1
  3717   2551   2554      1
  3718   2552   2553      1
  3719   2552   2659      1
  3720   2553   2554      1
  3721   2555   2556      1
  3722   2555   2661      1
  3723   2555   3765      1
  3724   2556   2558      1
  3725   2556   2559      1
  3726   2557   2559      1
  3727   2557   3767      1
  3728   2558   2560      1
  3729   2558   2664      1
  3730   2559   2561      1
  3731   2560   2562      1
  3732   2560   2670      1
  3733   2561   2562      1
  3734   2562   2563      1
  3735   2563   2564      1
  3736   2563   2565      1
  3737   2564   2670      1
  3738   2565   2566      1
  3739   2565   2570      1
  3740   2566   2568      1
  3741   2567   2569      1
  3742   2567   2676      1
  3743   2567   3778      1
  3744   2568   2569      1
  3745   2568   3779      1
  3746   2568   3781      1
  3747   2569   2573      1
  3748   2570   2572      1
  3749   2571   2572      1
  3750   2572   2574      1
  3751   2573   2575      1
  3752   2573   2680      1
  3753   2574   2576      1
  3754   2575   2576      1
  3755   2575   2577      1
  3756   2576   2578      1
  3757   2577   2579      1
  3758   2577   3791      1
  3759   2578   2686      1
  3760   2579   2580      1
  3761   2580   2581      1
  3762   2580   2582      1
  3763   2581   2583      1
  3764   2582   2584      1
  3765   2582   2585      1
  3766   2583   2584      1
  3767   2584   2692      1
  3768   2585   2586      1
  3769   2585   3800      1
  3770   2586   2694      1
  3771   2586   3909      1
  3772   2587   2588      1
  3773   2587   2590      1
  3774   2588   2589      1
  3775   2590   2592      1
  3776   2591   2593      1
  3777   2591   3807      1
  3778   2591   3812      1
  3779   2592   2594      1
  3780   2592   2705      1
  3781   2593   3693      1
  3782   2594   2595      1
  3783   2594   2596      1
  3784   2595   2597      1
  3785   2595   3812      1
  3786   2596   2598      1
  3787   2597   2709      1
  3788   2597   3816      1
  3789   2598   2602      1
  3790   2599   2600      1
  3791   2599   2603      1
  3792   2600   2601      1
  3793   2600   3820      1
  3794   2601   2602      1
  3795   2601   2606      1
  3796   2602   2604      1
  3797   2602   2605      1
  3798   2603   2605      1
  3799   2604   2607      1
  3800   2604   2716      1
  3801   2605   2609      1
  3802   2606   2608      1
  3803   2606   3824      1
  3804   2607   2610      1
  3805   2607   2717      1
  3806   2608   2609      1
  3807   2608   2612      1
  3808   2609   2611      1
  3809   2609   2613      1
  3810   2610   2611      1
  3811   2610   2617      1
  3812   2611   2614      1
  3813   2612   2616      1
  3814   2612   3830      1
  3815   2613   2615      1
  3816   2613   2616      1
  3817   2614   2618      1
  3818   2614   2721      1
  3819   2617   2726      1
  3820   2617   3834      1
  3821   2618   2619      1
  3822   2619   2620      1
  3823   2619   2726      1
  3824   2620   2733      1
  3825   2621   2622      1
  3826   2621   3841      1
  3827   2621   3842      1
  3828   2622   2623      1
  3829   2622   3846      1
  3830   2623   2624      1
  3831   2624   2626      1
  3832   2625   2627      1
  3833   2625   2736      1
  3834   2625   2738      1
  3835   2626   2627      1
  3836   2627   2628      1
  3837   2628   2629      1
  3838   2629   2631      1
  3839   2629   2739      1
  3840   2630   2634      1
  3841   2630   3853      1
  3842   2631   2633      1
  3843   2631   2745      1
  3844   2632   2633      1
  3845   2633   2637      1
  3846   2634   2636      1
  3847   2634   3860      1
  3848   2635   2638      1
  3849   2637   2638      1
  3850   2637   2639      1
  3851   2638   2642      1
  3852   2639   2640      1
  3853   2639   2641      1
  3854   2640   3860      1
  3855   2640   3864      1
  3856   2641   2646      1
  3857   2641   2753      1
  3858   2642   2643      1
  3859   2642   2645      1
  3860   2644   2645      1
  3861   2644   2753      1
  3862   2645   2648      1
  3863   2646   2647      1
  3864   2646   2649      1
  3865   2647   3864      1
  3866   2647   3868      1
  3867   2648   2650      1
  3868   2649   2651      1
  3869   2649   2755      1
  3870   2650   2652      1
  3871   2651   2653      1
  3872   2651   3868      1
  3873   2653   2655      1
  3874   2653   3873      1
  3875   2654   2656      1
  3876   2655   2657      1
  3877   2656   2758      1
  3878   2658   2659      1
  3879   2658   2660      1
  3880   2659   2661      1
  3881   2659   2664      1
  3882   2660   2662      1
  3883   2660   2665      1
  3884   2660   2761      1
  3885   2661   2663      1
  3886   2662   2663      1
  3887   2662   3876      1
  3888   2663   3877      1
  3889   2664   2667      1
  3890   2665   2666      1
  3891   2665   2667      1
  3892   2666   2765      1
  3893   2666   2770      1
  3894   2667   2668      1
  3895   2668   2670      1
  3896   2668   2671      1
  3897   2669   2672      1
  3898   2669   3880      1
  3899   2669   3884      1
  3900   2671   2672      1
  3901   2671   2673      1
  3902   2672   2674      1
  3903   2673   2775      1
  3904   2674   2675      1
  3905   2674   2773      1
  3906   2675   2678      1
  3907   2675   3889      1
  3908   2676   2680      1
  3909   2676   3889      1
  3910   2677   2679      1
  3911   2677   2681      1
  3912   2678   2783      1
  3913   2678   3894      1
  3914   2679   2782      1
  3915   2680   2682      1
  3916   2681   2682      1
  3917   2681   2684      1
  3918   2682   2685      1
  3919   2683   2684      1
  3920   2684   2687      1
  3921   2685   2686      1
  3922   2685   3900      1
  3923   2686   2687      1
  3924   2687   2688      1
  3925   2688   2689      1
  3926   2688   2690      1
  3927   2689   2693      1
  3928   2689   2792      1
  3929   2690   2691      1
  3930   2691   2692      1
  3931   2692   2694      1
  3932   2693   2695      1
  3933   2693   2801      1
  3934   2694   2696      1
  3935   2695   2696      1
  3936   2695   3908      1
  3937   2696   2697      1
  3938   2697   2698      1
  3939   2697   2699      1
  3940   2698   2701      1
  3941   2699   2700      1
  3942   2699   2702      1
  3943   2700   3910      1
  3944   2700   3915      1
  3945   2701   2703      1
  3946   2702   2703      1
  3947   2702   2705      1
  3948   2703   2706      1
  3949   2704   2706      1
  3950   2704   3915      1
  3951   2704   3920      1
  3952   2705   2707      1
  3953   2706   2708      1
  3954   2706   2810      1
  3955   2707   2709      1
  3956   2707   2710      1
  3957   2708   2710      1
  3958   2708   2712      1
  3959   2709   2711      1
  3960   2710   2713      1
  3961   2711   2715      1
  3962   2711   3924      1
  3963   2712   2714      1
  3964   2712   2815      1
  3965   2713   2715      1
  3966   2713   2716      1
  3967   2714   2715      1
  3968   2714   3928      1
  3969   2715   2717      1
  3970   2717   3930      1
  3971   2718   2719      1
  3972   2718   2720      1
  3973   2719   2722      1
  3974   2720   2723      1
  3975   2720   2823      1
  3976   2721   2722      1
  3977   2722   2724      1
  3978   2723   2724      1
  3979   2723   2725      1
  3980   2724   2727      1
  3981   2725   2729      1
  3982   2725   2825      1
  3983   2726   2728      1
  3984   2727   2728      1
  3985   2727   2729      1
  3986   2728   2730      1
  3987   2729   2731      1
  3988   2730   2732      1
  3989   2730   3945      1
  3990   2731   2734      1
  3991   2731   2831      1
  3992   2732   2733      1
  3993   2732   2735      1
  3994   2733   2736      1
  3995   2734   2835      1
  3996   2735   2737      1
  3997   2735   3949      1
  3998   2737   2738      1
  3999   2737   3954      1
  4000   2738   2739      1
  4001   2739   2741      1
  4002   2740   2743      1
  4003   2740   2840      1
  4004   2741   2742      1
  4005   2741   3958      1
  4006   2742   2744      1
  4007   2742   3962      1
  4008   2743   2744      1
  4009   2743   2848      1
  4010   2744   2745      1
  4011   2745   2746      1
  4012   2746   2748      1
  4013   2747   2749      1
  4014   2747   2848      1
  4015   2747   2855      1
  4016   2748   2749      1
  4017   2748   2751      1
  4018   2750   2752      1
  4019   2750   2854      1
  4020   2750   3964      1
  4021   2751   2753      1
  4022   2752   2754      1
  4023   2752   3969      1
  4024   2754   2858      1
  4025   2754   3974      1
  4026   2755   2756      1
  4027   2756   2758      1
  4028   2757   2759      1
  4029   2757   3979      1
  4030   2758   2760      1
  4031   2759   2760      1
  4032   2759   2868      1
  4033   2761   2763      1
  4034   2762   2763      1
  4035   2762   2764      1
  4036   2763   2765      1
  4037   2764   2873      1
  4038   2764   3993      1
  4039   2765   2766      1
  4040   2766   2768      1
  4041   2766   2769      1
  4042   2767   2877      1
  4043   2768   2771      1
  4044   2768   2877      1
  4045   2769   2770      1
  4046   2771   2772      1
  4047   2771   3993      1
  4048   2772   2777      1
  4049   2772   4000      1
  4050   2772   4001      1
  4051   2773   2774      1
  4052   2773   4000      1
  4053   2774   2775      1
  4054   2774   2776      1
  4055   2775   2779      1
  4056   2776   2777      1
  4057   2776   2778      1
  4058   2777   2885      1
  4059   2778   2779      1
  4060   2780   2781      1
  4061   2780   2885      1
  4062   2780   2891      1
  4063   2781   2785      1
  4064   2781   4009      1
  4065   2782   2783      1
  4066   2782   2784      1
  4067   2783   2786      1
  4068   2784   2787      1
  4069   2785   2786      1
  4070   2785   4013      1
  4071   2786   2788      1
  4072   2787   2789      1
  4073   2787   2790      1
  4074   2788   2791      1
  4075   2788   3897      1
  4076   2789   2894      1
  4077   2790   2792      1
  4078   2791   2792      1
  4079   2791   2793      1
  4080   2793   2794      1
  4081   2793   4015      1
  4082   2794   2796      1
  4083   2794   2797      1
  4084   2795   2796      1
  4085   2795   2798      1
  4086   2796   2799      1
  4087   2797   2802      1
  4088   2797   4021      1
  4089   2798   2904      1
  4090   2799   2800      1
  4091   2799   2801      1
  4092   2801   2803      1
  4093   2802   2804      1
  4094   2802   2905      1
  4095   2803   2805      1
  4096   2803   4023      1
  4097   2804   2805      1
  4098   2804   2806      1
  4099   2805   2807      1
  4100   2806   2808      1
  4101   2806   2912      1
  4102   2807   2809      1
  4103   2807   4031      1
  4104   2808   2809      1
  4105   2808   2812      1
  4106   2809   2810      1
  4107   2810   2811      1
  4108   2812   2813      1
  4109   2812   2918      1
  4110   2814   2815      1
  4111   2814   3920      1
  4112   2814   4037      1
  4113   2815   2817      1
  4114   2816   2819      1
  4115   2817   2820      1
  4116   2817   4041      1
  4117   2818   2819      1
  4118   2818   2924      1
  4119   2819   2821      1
  4120   2820   2821      1
  4121   2820   2822      1
  4122   2821   2823      1
  4123   2822   2824      1
  4124   2822   4048      1
  4125   2823   2824      1
  4126   2824   2825      1
  4127   2825   2830      1
  4128   2826   2827      1
  4129   2826   2829      1
  4130   2826   2935      1
  4131   2827   4056      1
  4132   2827   4162      1
  4133   2828   2829      1
  4134   2829   2830      1
  4135   2830   2831      1
  4136   2832   2833      1
  4137   2832   2942      1
  4138   2832   2944      1
  4139   2833   2834      1
  4140   2833   2836      1
  4141   2834   2837      1
  4142   2834   4064      1
  4143   2835   2836      1
  4144   2835   2838      1
  4145   2837   2838      1
  4146   2837   4071      1
  4147   2838   2840      1
  4148   2839   2843      1
  4149   2839   4071      1
  4150   2839   4076      1
  4151   2840   2843      1
  4152   2841   2842      1
  4153   2841   4076      1
  4154   2841   4180      1
  4155   2842   2845      1
  4156   2842   2951      1
  4157   2843   2846      1
  4158   2844   2845      1
  4159   2844   2953      1
  4160   2845   2846      1
  4161   2846   2847      1
  4162   2847   2848      1
  4163   2847   2849      1
  4164   2849   2850      1
  4165   2849   2851      1
  4166   2851   2852      1
  4167   2851   2960      1
  4168   2852   2853      1
  4169   2852   4083      1
  4170   2853   2854      1
  4171   2853   4084      1
  4172   2854   2855      1
  4173   2855   2856      1
  4174   2856   2857      1
  4175   2856   2858      1
  4176   2858   2859      1
  4177   2859   2863      1
  4178   2860   2861      1
  4179   2860   2865      1
  4180   2860   2969      1
  4181   2861   2864      1
  4182   2862   2865      1
  4183   2862   2968      1
  4184   2862   4090      1
  4185   2863   2866      1
  4186   2865   2867      1
  4187   2866   2867      1
  4188   2866   2868      1
  4189   2867   2869      1
  4190   2869   4095      1
  4191   2870   2872      1
  4192   2870   2874      1
  4193   2871   2872      1
  4194   2872   2875      1
  4195   2873   2874      1
  4196   2873   4097      1
  4197   2874   2876      1
  4198   2875   2982      1
  4199   2875   2983      1
  4200   2876   2878      1
  4201   2876   2879      1
  4202   2877   2878      1
  4203   2878   2880      1
  4204   2879   2881      1
  4205   2879   4106      1
  4206   2880   2881      1
  4207   2880   2882      1
  4208   2881   2995      1
  4209   2882   2883      1
  4210   2883   2995      1
  4211   2883   2999      1
  4212   2884   2886      1
  4213   2885   2886      1
  4214   2886   2888      1
  4215   2887   2888      1
  4216   2887   2889      1
  4217   2888   2891      1
  4218   2889   2890      1
  4219   2889   3004      1
  4220   2890   4121      1
  4221   2890   4231      1
  4222   2891   2892      1
  4223   2892   2894      1
  4224   2892   2895      1
  4225   2893   2895      1
  4226   2893   2896      1
  4227   2893   4121      1
  4228   2894   2897      1
  4229   2895   4126      1
  4230   2896   2898      1
  4231   2896   3010      1
  4232   2897   2899      1
  4233   2898   2899      1
  4234   2898   3012      1
  4235   2900   2902      1
  4236   2900   4126      1
  4237   2901   2903      1
  4238   2901   4249      1
  4239   2902   2903      1
  4240   2902   2905      1
  4241   2903   2907      1
  4242   2904   2909      1
  4243   2905   2910      1
  4244   2906   2908      1
  4245   2906   3019      1
  4246   2907   2911      1
  4247   2907   3022      1
  4248   2908   2909      1
  4249   2908   2911      1
  4250   2909   2912      1
  4251   2910   2913      1
  4252   2910   4136      1
  4253   2911   2913      1
  4254   2911   2914      1
  4255   2912   2913      1
  4256   2914   2915      1
  4257   2914   3025      1
  4258   2915   2917      1
  4259   2916   2917      1
  4260   2916   2918      1
  4261   2917   2919      1
  4262   2918   2920      1
  4263   2919   2920      1
  4264   2919   2921      1
  4265   2920   2922      1
  4266   2921   2923      1
  4267   2921   3031      1
  4268   2922   2924      1
  4269   2922   2925      1
  4270   2923   2925      1
  4271   2923   2927      1
  4272   2925   2926      1
  4273   2925   2928      1
  4274   2926   4152      1
  4275   2926   4159      1
  4276   2927   2929      1
  4277   2927   3038      1
  4278   2927   3040      1
  4279   2928   2929      1
  4280   2928   2930      1
  4281   2928   2932      1
  4282   2929   2933      1
  4283   2930   2934      1
  4284   2931   2932      1
  4285   2931   4159      1
  4286   2931   4162      1
  4287   2932   2935      1
  4288   2933   2936      1
  4289   2934   2935      1
  4290   2937   2938      1
  4291   2937   4165      1
  4292   2938   2939      1
  4293   2939   2940      1
  4294   2939   2942      1
  4295   2940   2941      1
  4296   2940   2944      1
  4297   2941   2943      1
  4298   2942   2945      1
  4299   2943   2946      1
  4300   2945   4065      1
  4301   2945   4170      1
  4302   2946   2948      1
  4303   2946   3058      1
  4304   2947   2950      1
  4305   2947   4170      1
  4306   2947   4176      1
  4307   2948   2949      1
  4308   2949   2950      1
  4309   2949   2951      1
  4310   2950   2952      1
  4311   2951   2953      1
  4312   2952   2954      1
  4313   2952   4182      1
  4314   2954   2955      1
  4315   2954   3062      1
  4316   2955   2956      1
  4317   2955   3067      1
  4318   2956   2957      1
  4319   2956   2959      1
  4320   2957   2958      1
  4321   2957   4186      1
  4322   2958   2961      1
  4323   2958   4190      1
  4324   2959   2963      1
  4325   2959   3072      1
  4326   2960   2961      1
  4327   2960   2962      1
  4328   2961   2964      1
  4329   2963   2964      1
  4330   2963   3075      1
  4331   2963   4195      1
  4332   2964   2965      1
  4333   2965   2966      1
  4334   2965   4198      1
  4335   2966   2968      1
  4336   2966   2969      1
  4337   2967   2969      1
  4338   2968   4202      1
  4339   2970   2972      1
  4340   2970   3077      1
  4341   2971   2972      1
  4342   2971   3078      1
  4343   2971   4206      1
  4344   2972   2973      1
  4345   2973   2974      1
  4346   2973   2975      1
  4347   2974   2977      1
  4348   2974   4210      1
  4349   2975   2976      1
  4350   2975   3087      1
  4351   2977   4215      1
  4352   2978   2979      1
  4353   2979   2980      1
  4354   2980   2981      1
  4355   2980   3093      1
  4356   2982   2984      1
  4357   2982   4219      1
  4358   2983   2985      1
  4359   2983   2986      1
  4360   2984   2986      1
  4361   2984   2987      1
  4362   2985   2989      1
  4363   2986   2990      1
  4364   2987   2994      1
  4365   2987   4222      1
  4366   2988   2991      1
  4367   2988   2993      1
  4368   2988   3095      1
  4369   2989   2990      1
  4370   2990   2991      1
  4371   2991   2992      1
  4372   2993   2997      1
  4373   2993   4222      1
  4374   2994   2996      1
  4375   2994   4228      1
  4376   2995   2996      1
  4377   2996   3000      1
  4378   2997   2998      1
  4379   2997   4339      1
  4380   2998   3000      1
  4381   2998   3002      1
  4382   2999   3003      1
  4383   3000   3001      1
  4384   3000   3004      1
  4385   3001   4229      1
  4386   3001   4231      1
  4387   3002   3005      1
  4388   3002   3105      1
  4389   3003   3004      1
  4390   3004   3006      1
  4391   3005   3006      1
  4392   3005   3112      1
  4393   3006   3007      1
  4394   3007   3008      1
  4395   3008   3009      1
  4396   3009   3014      1
  4397   3010   3011      1
  4398   3010   4241      1
  4399   3011   3012      1
  4400   3011   3015      1
  4401   3012   3016      1
  4402   3013   3015      1
  4403   3013   3116      1
  4404   3013   4242      1
  4405   3014   3017      1
  4406   3014   3118      1
  4407   3015   3017      1
  4408   3016   3018      1
  4409   3017   3018      1
  4410   3018   3020      1
  4411   3019   3020      1
  4412   3021   3022      1
  4413   3021   3023      1
  4414   3021   4252      1
  4415   3022   3025      1
  4416   3023   3026      1
  4417   3023   4255      1
  4418   3024   3027      1
  4419   3025   3027      1
  4420   3026   3027      1
  4421   3026   3130      1
  4422   3028   3029      1
  4423   3028   3130      1
  4424   3028   3133      1
  4425   3029   3030      1
  4426   3030   3032      1
  4427   3031   3032      1
  4428   3031   3033      1
  4429   3032   3036      1
  4430   3033   3034      1
  4431   3033   3035      1
  4432   3034   3037      1
  4433   3034   4265      1
  4434   3035   4148      1
  4435   3035   4269      1
  4436   3036   3038      1
  4437   3037   3039      1
  4438   3037   3143      1
  4439   3039   3040      1
  4440   3039   3042      1
  4441   3040   3041      1
  4442   3041   4269      1
  4443   3041   4274      1
  4444   3042   3043      1
  4445   3042   3146      1
  4446   3043   3045      1
  4447   3043   3046      1
  4448   3044   3046      1
  4449   3044   3151      1
  4450   3045   3153      1
  4451   3045   4276      1
  4452   3046   3047      1
  4453   3047   3048      1
  4454   3047   3049      1
  4455   3048   3051      1
  4456   3048   3153      1
  4457   3049   3050      1
  4458   3049   3052      1
  4459   3051   3053      1
  4460   3051   4398      1
  4461   3052   3053      1
  4462   3052   3054      1
  4463   3053   3055      1
  4464   3054   3056      1
  4465   3054   3058      1
  4466   3055   3056      1
  4467   3055   4285      1
  4468   3056   4176      1
  4469   3057   3059      1
  4470   3058   3062      1
  4471   3059   3060      1
  4472   3060   3061      1
  4473   3060   3166      1
  4474   3061   3065      1
  4475   3062   3064      1
  4476   3063   3064      1
  4477   3064   3067      1
  4478   3065   3066      1
  4479   3065   4291      1
  4480   3066   3069      1
  4481   3066   3168      1
  4482   3067   3070      1
  4483   3068   3070      1
  4484   3069   3071      1
  4485   3069   4297      1
  4486   3070   3072      1
  4487   3071   3173      1
  4488   3071   4422      1
  4489   3072   3073      1
  4490   3073   3074      1
  4491   3074   3075      1
  4492   3074   3077      1
  4493   3075   3078      1
  4494   3076   3184      1
  4495   3078   4308      1
  4496   3079   3080      1
  4497   3079   4309      1
  4498   3080   3082      1
  4499   3080   3188      1
  4500   3081   3082      1
  4501   3082   3083      1
  4502   3083   3085      1
  4503   3083   3086      1
  4504   3084   3086      1
  4505   3084   3188      1
  4506   3084   4316      1
  4507   3085   3087      1
  4508   3086   3088      1
  4509   3088   4322      1
  4510   3089   3090      1
  4511   3089   3093      1
  4512   3090   3092      1
  4513   3091   3092      1
  4514   3091   3196      1
  4515   3091   3201      1
  4516   3091   3203      1
  4517   3092   3096      1
  4518   3092   4326      1
  4519   3093   3095      1
  4520   3094   3097      1
  4521   3094   3201      1
  4522   3095   3096      1
  4523   3096   3097      1
  4524   3097   3098      1
  4525   3098   3099      1
  4526   3098   3101      1
  4527   3100   3102      1
  4528   3100   3208      1
  4529   3100   4460      1
  4530   3101   3102      1
  4531   3101   3103      1
  4532   3102   3104      1
  4533   3103   3105      1
  4534   3104   4339      1
  4535   3104   4343      1
  4536   3105   3108      1
  4537   3106   3107      1
  4538   3106   3109      1
  4539   3106   3215      1
  4540   3107   3110      1
  4541   3107   3217      1
  4542   3108   3111      1
  4543   3109   3113      1
  4544   3109   4343      1
  4545   3110   3111      1
  4546   3112   3114      1
  4547   3113   3115      1
  4548   3113   4351      1
  4549   3114   3115      1
  4550   3114   3116      1
  4551   3115   3117      1
  4552   3116   3118      1
  4553   3117   3119      1
  4554   3117   3120      1
  4555   3118   3119      1
  4556   3119   3121      1
  4557   3120   3122      1
  4558   3120   3227      1
  4559   3121   3122      1
  4560   3122   3233      1
  4561   3123   3125      1
  4562   3123   4364      1
  4563   3124   3126      1
  4564   3125   3126      1
  4565   3125   3127      1
  4566   3126   3128      1
  4567   3127   3238      1
  4568   3127   3240      1
  4569   3128   3129      1
  4570   3129   3240      1
  4571   3130   3131      1
  4572   3131   3132      1
  4573   3131   4370      1
  4574   3132   3134      1
  4575   3132   3135      1
  4576   3133   3134      1
  4577   3133   3136      1
  4578   3134   3137      1
  4579   3135   3138      1
  4580   3135   4374      1
  4581   3137   3138      1
  4582   3137   3139      1
  4583   3138   3140      1
  4584   3139   3141      1
  4585   3140   3144      1
  4586   3140   3250      1
  4587   3141   3251      1
  4588   3142   3143      1
  4589   3142   4268      1
  4590   3142   4384      1
  4591   3143   3146      1
  4592   3144   3145      1
  4593   3144   3253      1
  4594   3145   3148      1
  4595   3145   4384      1
  4596   3146   3147      1
  4597   3147   3150      1
  4598   3147   3151      1
  4599   3148   3150      1
  4600   3148   4387      1
  4601   3149   3150      1
  4602   3149   3152      1
  4603   3149   3253      1
  4604   3152   3260      1
  4605   3152   3262      1
  4606   3153   3154      1
  4607   3154   4391      1
  4608   3154   4395      1
  4609   3155   3156      1
  4610   3155   3262      1
  4611   3156   3157      1
  4612   3156   3269      1
  4613   3157   3159      1
  4614   3157   3160      1
  4615   3158   3160      1
  4616   3158   3270      1
  4617   3158   4402      1
  4618   3159   3161      1
  4619   3160   3162      1
  4620   3161   3163      1
  4621   3162   3163      1
  4622   3162   3164      1
  4623   3163   3165      1
  4624   3164   3280      1
  4625   3164   4408      1
  4626   3165   3167      1
  4627   3166   3167      1
  4628   3166   3168      1
  4629   3167   3169      1
  4630   3168   3170      1
  4631   3169   3170      1
  4632   3169   3171      1
  4633   3170   3173      1
  4634   3171   3176      1
  4635   3172   3174      1
  4636   3172   3175      1
  4637   3172   4416      1
  4638   3173   3175      1
  4639   3174   3179      1
  4640   3174   3289      1
  4641   3175   3178      1
  4642   3176   3177      1
  4643   3177   3180      1
  4644   3178   3179      1
  4645   3178   3181      1
  4646   3179   3182      1
  4647   3180   3181      1
  4648   3180   3184      1
  4649   3181   3183      1
  4650   3182   3183      1
  4651   3182   3297      1
  4652   3183   3185      1
  4653   3184   3186      1
  4654   3185   3187      1
  4655   3187   4435      1
  4656   3187   4537      1
  4657   3188   4434      1
  4658   3189   3190      1
  4659   3189   3191      1
  4660   3189   3302      1
  4661   3190   3192      1
  4662   3191   3193      1
  4663   3191   3305      1
  4664   3192   3194      1
  4665   3192   3195      1
  4666   3193   3195      1
  4667   3193   4440      1
  4668   3197   3315      1
  4669   3197   4444      1
  4670   3198   3200      1
  4671   3198   3313      1
  4672   3199   3200      1
  4673   3199   3201      1
  4674   3200   3202      1
  4675   3202   3204      1
  4676   3202   3206      1
  4677   3203   3205      1
  4678   3203   4330      1
  4679   3204   3317      1
  4680   3204   3324      1
  4681   3205   3206      1
  4682   3205   3208      1
  4683   3206   3207      1
  4684   3207   3210      1
  4685   3207   3211      1
  4686   3208   3210      1
  4687   3209   3211      1
  4688   3209   3327      1
  4689   3210   3213      1
  4690   3212   3214      1
  4691   3212   3325      1
  4692   3212   4458      1
  4693   3213   3215      1
  4694   3213   3217      1
  4695   3214   3332      1
  4696   3214   4464      1
  4697   3215   4460      1
  4698   3216   3217      1
  4699   3218   3219      1
  4700   3218   3220      1
  4701   3218   3335      1
  4702   3219   3222      1
  4703   3219   4468      1
  4704   3220   3221      1
  4705   3220   3337      1
  4706   3221   3223      1
  4707   3221   3224      1
  4708   3222   3224      1
  4709   3222   4565      1
  4710   3223   3225      1
  4711   3224   3226      1
  4712   3226   3228      1
  4713   3226   3230      1
  4714   3227   3228      1
  4715   3227   4470      1
  4716   3228   3229      1
  4717   3229   3231      1
  4718   3229   3233      1
  4719   3230   3232      1
  4720   3230   3348      1
  4721   3231   3232      1
  4722   3232   3350      1
  4723   3233   3234      1
  4724   3234   3236      1
  4725   3235   3236      1
  4726   3235   4478      1
  4727   3236   3237      1
  4728   3237   3239      1
  4729   3238   3241      1
  4730   3238   4483      1
  4731   3239   3244      1
  4732   3239   3358      1
  4733   3240   3242      1
  4734   3241   3245      1
  4735   3241   4487      1
  4736   3242   3243      1
  4737   3242   3245      1
  4738   3243   3244      1
  4739   3244   3246      1
  4740   3245   3247      1
  4741   3246   3249      1
  4742   3246   3362      1
  4743   3247   3248      1
  4744   3247   4492      1
  4745   3248   3249      1
  4746   3248   3250      1
  4747   3249   3252      1
  4748   3250   3251      1
  4749   3253   3255      1
  4750   3254   3259      1
  4751   3254   3370      1
  4752   3255   3256      1
  4753   3255   3257      1
  4754   3256   3259      1
  4755   3256   3260      1
  4756   3257   3261      1
  4757   3257   4501      1
  4758   3258   3259      1
  4759   3258   3373      1
  4760   3258   3379      1
  4761   3261   3263      1
  4762   3261   4505      1
  4763   3262   3265      1
  4764   3263   3264      1
  4765   3263   3266      1
  4766   3264   3265      1
  4767   3264   3268      1
  4768   3265   3269      1
  4769   3266   3270      1
  4770   3266   4508      1
  4771   3267   3271      1
  4772   3267   3381      1
  4773   3267   4509      1
  4774   3268   3271      1
  4775   3268   3272      1
  4776   3268   3382      1
  4777   3269   3270      1
  4778   3271   3388      1
  4779   3272   3273      1
  4780   3272   3389      1
  4781   3273   3276      1
  4782   3273   3277      1
  4783   3274   3275      1
  4784   3274   3388      1
  4785   3274   4620      1
  4786   3275   3276      1
  4787   3275   4515      1
  4788   3276   3279      1
  4789   3277   3278      1
  4790   3278   3279      1
  4791   3279   3280      1
  4792   3280   3281      1
  4793   3281   3287      1
  4794   3281   4411      1
  4795   3282   3283      1
  4796   3282   3284      1
  4797   3282   3285      1
  4798   3283   3401      1
  4799   3284   3286      1
  4800   3284   3405      1
  4801   3285   3287      1
  4802   3285   3288      1
  4803   3286   4521      1
  4804   3286   4524      1
  4805   3287   3289      1
  4806   3288   3290      1
  4807   3288   3291      1
  4808   3289   3291      1
  4809   3290   3292      1
  4810   3291   3293      1
  4811   3292   3293      1
  4812   3292   3294      1
  4813   3293   3295      1
  4814   3294   3296      1
  4815   3295   3297      1
  4816   3295   3298      1
  4817   3296   3415      1
  4818   3296   3421      1
  4819   3297   4535      1
  4820   3298   3419      1
  4821   3298   4536      1
  4822   3299   3300      1
  4823   3299   3301      1
  4824   3300   3421      1
  4825   3300   3427      1
  4826   3301   3302      1
  4827   3301   3303      1
  4828   3303   3304      1
  4829   3303   3305      1
  4830   3304   3306      1
  4831   3304   3427      1
  4832   3305   3307      1
  4833   3306   3307      1
  4834   3306   3308      1
  4835   3307   3310      1
  4836   3308   3433      1
  4837   3311   3434      1
  4838   3311   3436      1
  4839   3312   3314      1
  4840   3312   3440      1
  4841   3313   3317      1
  4842   3314   3442      1
  4843   3315   3316      1
  4844   3315   4449      1
  4845   3316   3317      1
  4846   3316   3318      1
  4847   3317   3319      1
  4848   3318   3321      1
  4849   3318   4548      1
  4850   3319   3322      1
  4851   3320   3442      1
  4852   3321   3322      1
  4853   3321   3323      1
  4854   3322   3326      1
  4855   3323   3451      1
  4856   3323   4550      1
  4857   3324   3325      1
  4858   3324   3327      1
  4859   3325   4554      1
  4860   3326   3328      1
  4861   3326   3329      1
  4862   3327   3328      1
  4863   3329   3330      1
  4864   3329   3451      1
  4865   3330   3334      1
  4866   3330   3455      1
  4867   3331   3332      1
  4868   3331   3333      1
  4869   3331   4556      1
  4870   3332   3335      1
  4871   3333   3334      1
  4872   3333   4561      1
  4873   3334   3460      1
  4874   3335   3336      1
  4875   3336   3337      1
  4876   3337   3338      1
  4877   3338   3339      1
  4878   3339   3342      1
  4879   3340   3341      1
  4880   3340   3343      1
  4881   3341   4565      1
  4882   3341   4568      1
  4883   3342   3344      1
  4884   3343   3344      1
  4885   3343   3345      1
  4886   3344   3346      1
  4887   3345   3347      1
  4888   3345   4568      1
  4889   3346   3349      1
  4890   3347   3351      1
  4891   3347   3473      1
  4892   3348   3352      1
  4893   3348   4477      1
  4894   3349   3351      1
  4895   3350   3353      1
  4896   3350   3354      1
  4897   3351   3353      1
  4898   3352   3353      1
  4899   3352   4577      1
  4900   3355   3356      1
  4901   3355   3357      1
  4902   3356   3358      1
  4903   3357   3359      1
  4904   3357   3481      1
  4905   3358   3360      1
  4906   3359   3361      1
  4907   3359   3486      1
  4908   3360   3361      1
  4909   3360   3362      1
  4910   3361   3363      1
  4911   3362   3366      1
  4912   3363   3365      1
  4913   3363   3366      1
  4914   3364   3365      1
  4915   3364   4584      1
  4916   3364   4590      1
  4917   3365   3490      1
  4918   3366   3367      1
  4919   3367   3368      1
  4920   3367   3369      1
  4921   3368   3371      1
  4922   3368   4590      1
  4923   3369   3370      1
  4924   3369   3373      1
  4925   3371   3373      1
  4926   3371   4598      1
  4927   3372   3376      1
  4928   3374   3375      1
  4929   3374   3376      1
  4930   3374   3496      1
  4931   3375   3377      1
  4932   3375   3497      1
  4933   3376   3378      1
  4934   3377   3378      1
  4935   3377   4601      1
  4936   3378   3379      1
  4937   3379   3380      1
  4938   3380   3382      1
  4939   3380   3383      1
  4940   3381   3384      1
  4941   3381   4604      1
  4942   3383   3384      1
  4943   3383   3385      1
  4944   3384   3386      1
  4945   3385   3387      1
  4946   3385   3503      1
  4947   3386   3501      1
  4948   3386   4612      1
  4949   3387   3390      1
  4950   3388   3391      1
  4951   3389   3391      1
  4952   3390   3393      1
  4953   3391   3395      1
  4954   3392   3394      1
  4955   3392   4612      1
  4956   3392   4722      1
  4957   3393   3394      1
  4958   3393   3395      1
  4959   3394   3515      1
  4960   3395   3397      1
  4961   3396   3397      1
  4962   3396   4620      1
  4963   3396   4624      1
  4964   3397   3399      1
  4965   3398   3517      1
  4966   3398   3521      1
  4967   3399   3400      1
  4968   3399   3402      1
  4969   3400   3403      1
  4970   3400   4624      1
  4971   3401   3402      1
  4972   3402   3404      1
  4973   3403   3406      1
  4974   3403   4629      1
  4975   3404   3405      1
  4976   3404   3407      1
  4977   3405   3408      1
  4978   3406   3409      1
  4979   3406   3526      1
  4980   3407   3409      1
  4981   3407   3410      1
  4982   3408   3411      1
  4983   3408   4524      1
  4984   3409   3412      1
  4985   3410   3413      1
  4986   3411   3414      1
  4987   3411   4636      1
  4988   3412   3528      1
  4989   3413   3415      1
  4990   3413   3418      1
  4991   3414   3416      1
  4992   3414   3417      1
  4993   3415   3416      1
  4994   3416   3419      1
  4995   3417   3420      1
  4996   3417   4639      1
  4997   3418   3422      1
  4998   3419   3424      1
  4999   3420   3424      1
  5000   3420   4644      1
  5001   3421   3422      1
  5002   3422   3425      1
  5003   3423   3425      1
  5004   3423   3537      1
  5005   3424   3426      1
  5006   3425   3428      1
  5007   3426   3427      1
  5008   3426   3429      1
  5009   3428   3431      1
  5010   3429   3430      1
  5011   3429   3432      1
  5012   3430   3431      1
  5013   3430   3538      1
  5014   3431   3541      1
  5015   3432   4646      1
  5016   3432   4650      1
  5017   3432   4652      1
  5018   3433   3434      1
  5019   3433   4650      1
  5020   3434   3435      1
  5021   3435   4652      1
  5022   3438   3439      1
  5023   3440   3441      1
  5024   3440   3443      1
  5025   3441   3444      1
  5026   3441   4657      1
  5027   3442   3443      1
  5028   3443   3445      1
  5029   3444   3446      1
  5030   3444   4662      1
  5031   3445   3446      1
  5032   3445   3447      1
  5033   3446   3448      1
  5034   3447   3449      1
  5035   3448   3450      1
  5036   3449   3450      1
  5037   3451   3452      1
  5038   3452   3453      1
  5039   3452   4667      1
  5040   3453   3454      1
  5041   3454   3456      1
  5042   3454   3457      1
  5043   3455   3459      1
  5044   3456   3458      1
  5045   3457   4675      1
  5046   3459   3460      1
  5047   3459   3461      1
  5048   3460   3463      1
  5049   3461   3464      1
  5050   3462   3463      1
  5051   3462   4676      1
  5052   3462   4677      1
  5053   3463   3465      1
  5054   3464   3465      1
  5055   3465   3466      1
  5056   3466   3467      1
  5057   3466   3469      1
  5058   3467   3468      1
  5059   3467   3470      1
  5060   3468   3471      1
  5061   3468   4678      1
  5062   3468   4679      1
  5063   3469   3472      1
  5064   3470   3473      1
  5065   3470   4680      1
  5066   3471   3474      1
  5067   3472   3475      1
  5068   3473   3477      1
  5069   3474   3475      1
  5070   3474   3476      1
  5071   3475   3478      1
  5072   3476   3477      1
  5073   3476   4687      1
  5074   3477   4686      1
  5075   3478   3479      1
  5076   3478   3480      1
  5077   3479   3481      1
  5078   3480   3482      1
  5079   3481   3484      1
  5080   3482   3483      1
  5081   3483   3484      1
  5082   3483   3485      1
  5083   3484   3486      1
  5084   3485   3487      1
  5085   3486   3488      1
  5086   3487   3489      1
  5087   3487   4699      1
  5088   3488   3490      1
  5089   3488   3491      1
  5090   3489   3492      1
  5091   3490   3493      1
  5092   3491   3492      1
  5093   3492   3494      1
  5094   3493   3495      1
  5095   3493   4702      1
  5096   3495   3496      1
  5097   3495   3497      1
  5098   3497   4704      1
  5099   3498   3499      1
  5100   3499   3502      1
  5101   3500   3504      1
  5102   3500   4714      1
  5103   3500   4715      1
  5104   3501   3503      1
  5105   3501   4715      1
  5106   3502   3505      1
  5107   3503   3506      1
  5108   3504   3505      1
  5109   3504   3506      1
  5110   3505   3508      1
  5111   3506   3507      1
  5112   3507   3510      1
  5113   3508   3509      1
  5114   3508   3511      1
  5115   3509   3619      1
  5116   3510   3511      1
  5117   3510   3512      1
  5118   3511   3514      1
  5119   3512   3516      1
  5120   3513   3515      1
  5121   3513   4722      1
  5122   3513   4727      1
  5123   3514   3516      1
  5124   3515   3517      1
  5125   3517   3519      1
  5126   3518   3519      1
  5127   3518   3520      1
  5128   3518   4727      1
  5129   3519   3522      1
  5130   3521   3524      1
  5131   3522   3524      1
  5132   3522   3525      1
  5133   3525   3527      1
  5134   3526   3528      1
  5135   3526   4732      1
  5136   3527   3529      1
  5137   3528   3531      1
  5138   3529   3530      1
  5139   3529   3532      1
  5140   3530   3531      1
  5141   3530   3533      1
  5142   3531   4740      1
  5143   3532   3534      1
  5144   3533   4742      1
  5145   3534   3535      1
  5146   3535   3536      1
  5147   3535   3537      1
  5148   3538   3539      1
  5149   3538   3540      1
  5150   3539   3542      1
  5151   3539   3544      1
  5152   3540   4652      1
  5153   3540   4752      1
  5154   3541   3542      1
  5155   3542   3546      1
  5156   3543   3544      1
  5157   3543   4752      1
  5158   3543   4754      1
  5159   3544   3545      1
  5160   3545   3546      1
  5161   3547   3548      1
  5162   3547   3551      1
  5163   3547   3651      1
  5164   3548   3552      1
  5165   3548   3652      1
  5166   3549   3550      1
  5167   3550   3554      1
  5168   3550   4757      1
  5169   3551   3555      1
  5170   3552   3554      1
  5171   3552   3654      1
  5172   3553   4662      1
  5173   3553   4666      1
  5174   3554   3556      1
  5175   3554   4763      1
  5176   3555   3557      1
  5177   3555   3654      1
  5178   3556   3558      1
  5179   3556   3559      1
  5180   3557   3561      1
  5181   3558   4766      1
  5182   3559   3560      1
  5183   3559   3562      1
  5184   3561   3564      1
  5185   3561   3660      1
  5186   3562   3563      1
  5187   3562   3564      1
  5188   3563   3566      1
  5189   3563   4767      1
  5190   3564   3565      1
  5191   3566   3567      1
  5192   3566   4771      1
  5193   3567   3571      1
  5194   3567   3572      1
  5195   3568   3569      1
  5196   3568   3570      1
  5197   3568   3571      1
  5198   3569   3573      1
  5199   3571   3575      1
  5200   3572   3666      1
  5201   3572   4777      1
  5202   3573   3580      1
  5203   3574   3575      1
  5204   3574   3665      1
  5205   3574   3667      1
  5206   3575   3578      1
  5207   3576   4678      1
  5208   3577   3578      1
  5209   3578   3579      1
  5210   3579   3580      1
  5211   3581   5860      1
  5212   3582   3584      1
  5213   3582   3585      1
  5214   3583   3584      1
  5215   3583   3677      1
  5216   3584   3587      1
  5217   3585   3586      1
  5218   3586   3589      1
  5219   3587   3589      1
  5220   3587   3590      1
  5221   3588   3589      1
  5222   3588   4790      1
  5223   3590   3676      1
  5224   3590   4788      1
  5225   3591   4790      1
  5226   3591   4797      1
  5227   3592   3594      1
  5228   3592   4797      1
  5229   3593   3597      1
  5230   3594   3595      1
  5231   3594   3597      1
  5232   3595   3596      1
  5233   3595   4801      1
  5234   3596   3598      1
  5235   3596   3689      1
  5236   3597   3599      1
  5237   3598   3599      1
  5238   3598   3695      1
  5239   3599   3600      1
  5240   3600   3601      1
  5241   3601   3602      1
  5242   3601   3603      1
  5243   3602   3604      1
  5244   3603   3605      1
  5245   3604   3605      1
  5246   3605   3608      1
  5247   3606   3609      1
  5248   3606   3706      1
  5249   3606   4813      1
  5250   3607   3610      1
  5251   3607   3706      1
  5252   3607   3709      1
  5253   3609   3611      1
  5254   3609   4817      1
  5255   3610   3612      1
  5256   3610   3613      1
  5257   3611   3612      1
  5258   3611   4823      1
  5259   3612   3614      1
  5260   3613   3710      1
  5261   3613   3712      1
  5262   3614   3615      1
  5263   3614   3616      1
  5264   3616   3617      1
  5265   3616   4825      1
  5266   3617   3620      1
  5267   3618   3621      1
  5268   3619   4720      1
  5269   3620   4831      1
  5270   3621   3622      1
  5271   3622   3624      1
  5272   3623   3624      1
  5273   3623   3723      1
  5274   3624   3626      1
  5275   3625   3626      1
  5276   3625   3724      1
  5277   3625   4838      1
  5278   3626   3628      1
  5279   3627   3629      1
  5280   3628   3629      1
  5281   3628   3630      1
  5282   3629   3633      1
  5283   3630   3632      1
  5284   3630   3731      1
  5285   3631   4841      1
  5286   3632   3736      1
  5287   3633   3634      1
  5288   3634   3636      1
  5289   3635   3636      1
  5290   3635   4847      1
  5291   3635   4851      1
  5292   3636   3637      1
  5293   3637   3638      1
  5294   3637   3639      1
  5295   3638   3640      1
  5296   3639   3641      1
  5297   3639   4851      1
  5298   3640   3642      1
  5299   3641   3644      1
  5300   3641   4856      1
  5301   3642   3645      1
  5302   3643   3644      1
  5303   3643   3645      1
  5304   3644   3646      1
  5305   3645   3647      1
  5306   3646   3649      1
  5307   3646   4860      1
  5308   3647   3648      1
  5309   3648   3650      1
  5310   3649   3650      1
  5311   3649   4864      1
  5312   3652   4866      1
  5313   3653   3767      1
  5314   3654   3656      1
  5315   3655   3657      1
  5316   3655   3773      1
  5317   3656   3658      1
  5318   3656   4872      1
  5319   3657   3658      1
  5320   3657   3659      1
  5321   3658   3660      1
  5322   3659   3661      1
  5323   3659   3776      1
  5324   3660   3662      1
  5325   3661   3662      1
  5326   3661   3663      1
  5327   3661   3664      1
  5328   3663   3780      1
  5329   3663   4881      1
  5330   3664   3781      1
  5331   3666   3667      1
  5332   3666   3670      1
  5333   3667   3668      1
  5334   3668   3669      1
  5335   3668   3671      1
  5336   3670   3671      1
  5337   3670   4883      1
  5338   3672   3673      1
  5339   3672   3790      1
  5340   3672   3795      1
  5341   3673   3675      1
  5342   3673   3678      1
  5343   3674   3678      1
  5344   3674   3795      1
  5345   3674   3799      1
  5346   3675   4890      1
  5347   3675   4894      1
  5348   3676   3677      1
  5349   3676   4890      1
  5350   3677   3679      1
  5351   3678   3679      1
  5352   3679   3680      1
  5353   3681   3682      1
  5354   3681   3805      1
  5355   3681   4898      1
  5356   3682   3683      1
  5357   3682   3686      1
  5358   3683   3684      1
  5359   3683   4901      1
  5360   3684   3685      1
  5361   3684   3689      1
  5362   3685   3687      1
  5363   3685   3688      1
  5364   3686   3690      1
  5365   3686   3809      1
  5366   3687   3692      1
  5367   3688   3691      1
  5368   3689   4800      1
  5369   3690   3691      1
  5370   3690   3694      1
  5371   3691   3693      1
  5372   3691   3696      1
  5373   3692   3695      1
  5374   3693   3817      1
  5375   3694   3697      1
  5376   3694   4910      1
  5377   3695   3696      1
  5378   3696   3697      1
  5379   3696   3698      1
  5380   3697   3699      1
  5381   3698   3700      1
  5382   3699   3701      1
  5383   3699   4915      1
  5384   3700   3701      1
  5385   3700   3702      1
  5386   3701   3703      1
  5387   3702   3705      1
  5388   3703   3704      1
  5389   3703   3706      1
  5390   3703   4917      1
  5391   3704   3707      1
  5392   3704   4918      1
  5393   3705   3707      1
  5394   3705   3709      1
  5395   3707   3708      1
  5396   3708   3830      1
  5397   3708   3831      1
  5398   3709   3710      1
  5399   3711   3713      1
  5400   3712   3714      1
  5401   3713   3714      1
  5402   3713   3717      1
  5403   3714   3715      1
  5404   3715   3716      1
  5405   3716   3718      1
  5406   3716   4932      1
  5407   3717   3719      1
  5408   3717   3841      1
  5409   3718   3720      1
  5410   3718   4931      1
  5411   3719   3720      1
  5412   3719   3846      1
  5413   3720   3721      1
  5414   3721   3722      1
  5415   3721   4938      1
  5416   3722   3725      1
  5417   3722   3726      1
  5418   3723   3724      1
  5419   3723   3725      1
  5420   3724   4940      1
  5421   3725   3727      1
  5422   3726   3850      1
  5423   3726   3851      1
  5424   3727   3728      1
  5425   3728   3851      1
  5426   3729   3730      1
  5427   3729   4947      1
  5428   3729   4951      1
  5429   3730   3731      1
  5430   3730   3734      1
  5431   3732   3733      1
  5432   3732   3737      1
  5433   3732   4951      1
  5434   3733   3734      1
  5435   3733   3856      1
  5436   3734   3735      1
  5437   3735   3736      1
  5438   3735   3738      1
  5439   3737   3859      1
  5440   3737   4955      1
  5441   3738   3739      1
  5442   3739   3741      1
  5443   3739   3862      1
  5444   3740   3742      1
  5445   3740   3743      1
  5446   3741   3742      1
  5447   3741   3744      1
  5448   3742   3745      1
  5449   3743   3746      1
  5450   3743   4959      1
  5451   3744   3748      1
  5452   3744   3866      1
  5453   3745   3746      1
  5454   3745   3748      1
  5455   3746   4963      1
  5456   3747   3749      1
  5457   3748   3750      1
  5458   3749   3750      1
  5459   3749   3751      1
  5460   3750   3753      1
  5461   3751   3757      1
  5462   3752   3753      1
  5463   3752   4966      1
  5464   3752   4968      1
  5465   3753   3754      1
  5466   3753   3755      1
  5467   3754   3758      1
  5468   3754   3759      1
  5469   3755   3756      1
  5470   3755   3760      1
  5471   3756   4968      1
  5472   3756   5091      1
  5473   3757   3758      1
  5474   3757   3761      1
  5475   3760   3761      1
  5476   3762   3764      1
  5477   3762   3766      1
  5478   3763   3768      1
  5479   3763   3874      1
  5480   3764   3769      1
  5481   3765   3766      1
  5482   3765   3874      1
  5483   3766   3767      1
  5484   3768   3770      1
  5485   3768   3875      1
  5486   3769   3771      1
  5487   3769   4976      1
  5488   3770   3771      1
  5489   3770   3772      1
  5490   3771   3773      1
  5491   3772   3774      1
  5492   3772   3881      1
  5493   3773   3775      1
  5494   3774   3775      1
  5495   3774   3777      1
  5496   3775   3776      1
  5497   3776   3779      1
  5498   3777   3778      1
  5499   3777   3779      1
  5500   3778   3884      1
  5501   3780   3782      1
  5502   3780   3783      1
  5503   3781   3783      1
  5504   3782   4989      1
  5505   3782   4990      1
  5506   3782   4995      1
  5507   3783   3784      1
  5508   3784   3785      1
  5509   3785   3891      1
  5510   3786   3789      1
  5511   3786   4996      1
  5512   3786   5118      1
  5513   3787   3788      1
  5514   3787   3790      1
  5515   3787   4995      1
  5516   3788   3789      1
  5517   3788   3792      1
  5518   3789   3794      1
  5519   3790   4885      1
  5520   3791   3792      1
  5521   3791   3793      1
  5522   3792   3795      1
  5523   3793   3794      1
  5524   3793   3900      1
  5525   3794   3903      1
  5526   3796   3797      1
  5527   3796   3798      1
  5528   3796   5003      1
  5529   3797   3903      1
  5530   3797   5128      1
  5531   3798   3801      1
  5532   3798   5006      1
  5533   3799   3800      1
  5534   3799   3803      1
  5535   3800   3802      1
  5536   3801   3802      1
  5537   3801   3805      1
  5538   3802   3804      1
  5539   3803   3807      1
  5540   3804   3806      1
  5541   3804   3909      1
  5542   3805   3809      1
  5543   3806   3808      1
  5544   3806   3907      1
  5545   3806   3912      1
  5546   3807   3809      1
  5547   3808   3810      1
  5548   3808   5011      1
  5549   3809   3810      1
  5550   3810   3811      1
  5551   3810   3814      1
  5552   3811   3812      1
  5553   3811   3813      1
  5554   3813   3816      1
  5555   3813   3914      1
  5556   3814   3815      1
  5557   3814   5018      1
  5558   3815   3817      1
  5559   3815   3818      1
  5560   3816   3921      1
  5561   3817   3820      1
  5562   3818   3821      1
  5563   3818   5021      1
  5564   3819   3822      1
  5565   3819   3922      1
  5566   3819   5020      1
  5567   3820   3823      1
  5568   3821   3822      1
  5569   3821   3823      1
  5570   3822   5028      1
  5571   3823   3824      1
  5572   3824   3825      1
  5573   3825   3827      1
  5574   3825   3931      1
  5575   3826   3827      1
  5576   3826   3828      1
  5577   3826   5028      1
  5578   3827   3829      1
  5579   3828   3831      1
  5580   3828   5032      1
  5581   3829   3832      1
  5582   3829   3933      1
  5583   3830   3833      1
  5584   3831   3835      1
  5585   3832   3837      1
  5586   3832   5156      1
  5587   3833   3835      1
  5588   3833   3836      1
  5589   3834   3836      1
  5590   3834   3939      1
  5591   3835   3838      1
  5592   3836   3839      1
  5593   3837   3838      1
  5594   3837   5037      1
  5595   3838   5039      1
  5596   3839   3840      1
  5597   3839   3842      1
  5598   3840   3843      1
  5599   3840   3943      1
  5600   3842   3844      1
  5601   3843   3845      1
  5602   3843   3946      1
  5603   3844   3845      1
  5604   3844   3848      1
  5605   3845   3847      1
  5606   3846   3848      1
  5607   3847   3849      1
  5608   3847   5050      1
  5609   3848   3849      1
  5610   3849   3850      1
  5611   3850   5058      1
  5612   3851   3853      1
  5613   3852   3957      1
  5614   3852   5060      1
  5615   3853   3854      1
  5616   3854   3855      1
  5617   3854   3856      1
  5618   3855   3857      1
  5619   3855   3961      1
  5620   3856   3858      1
  5621   3857   3858      1
  5622   3857   3861      1
  5623   3858   3859      1
  5624   3859   5070      1
  5625   3860   3862      1
  5626   3861   3863      1
  5627   3861   3966      1
  5628   3862   3865      1
  5629   3863   3970      1
  5630   3863   5074      1
  5631   3864   3865      1
  5632   3865   3866      1
  5633   3866   3867      1
  5634   3867   3869      1
  5635   3867   5079      1
  5636   3868   3870      1
  5637   3869   3870      1
  5638   3869   3871      1
  5639   3870   3872      1
  5640   3871   3978      1
  5641   3871   5081      1
  5642   3872   3873      1
  5643   3872   3980      1
  5644   3875   3878      1
  5645   3875   5094      1
  5646   3876   3879      1
  5647   3876   3987      1
  5648   3877   3880      1
  5649   3877   3881      1
  5650   3878   3882      1
  5651   3878   5100      1
  5652   3879   3880      1
  5653   3879   3996      1
  5654   3881   3884      1
  5655   3882   3885      1
  5656   3882   4981      1
  5657   3883   3886      1
  5658   3883   3997      1
  5659   3883   5100      1
  5660   3885   3886      1
  5661   3885   5105      1
  5662   3886   3887      1
  5663   3887   4006      1
  5664   3887   5107      1
  5665   3888   3890      1
  5666   3888   5105      1
  5667   3888   5107      1
  5668   3889   3892      1
  5669   3890   3891      1
  5670   3890   4992      1
  5671   3891   3893      1
  5672   3892   3893      1
  5673   3892   3894      1
  5674   3893   3895      1
  5675   3894   3897      1
  5676   3895   3896      1
  5677   3895   3898      1
  5678   3896   5114      1
  5679   3896   5119      1
  5680   3897   3899      1
  5681   3898   3899      1
  5682   3898   3901      1
  5683   3899   3902      1
  5684   3900   3902      1
  5685   3901   4018      1
  5686   3901   5119      1
  5687   3902   3904      1
  5688   3903   3904      1
  5689   3904   3905      1
  5690   3905   3906      1
  5691   3906   3908      1
  5692   3906   4022      1
  5693   3907   5128      1
  5694   3907   5133      1
  5695   3908   3910      1
  5696   3909   3910      1
  5697   3911   3912      1
  5698   3911   3913      1
  5699   3911   5133      1
  5700   3912   3914      1
  5701   3913   3916      1
  5702   3913   4025      1
  5703   3914   3917      1
  5704   3915   3917      1
  5705   3916   3918      1
  5706   3916   4032      1
  5707   3917   3918      1
  5708   3918   3919      1
  5709   3919   3920      1
  5710   3919   4035      1
  5711   3921   3923      1
  5712   3921   3924      1
  5713   3922   3923      1
  5714   3922   5143      1
  5715   3923   3925      1
  5716   3924   3927      1
  5717   3925   3926      1
  5718   3925   3927      1
  5719   3926   4042      1
  5720   3926   5144      1
  5721   3927   3928      1
  5722   3928   3929      1
  5723   3929   3932      1
  5724   3929   4047      1
  5725   3930   3931      1
  5726   3930   3932      1
  5727   3931   3933      1
  5728   3932   3935      1
  5729   3933   3935      1
  5730   3934   3936      1
  5731   3934   4047      1
  5732   3934   4054      1
  5733   3935   3936      1
  5734   3935   3937      1
  5735   3936   3938      1
  5736   3937   3939      1
  5737   3937   3941      1
  5738   3938   3942      1
  5739   3938   5157      1
  5740   3939   3943      1
  5741   3940   3941      1
  5742   3940   4054      1
  5743   3940   4059      1
  5744   3941   3945      1
  5745   3942   3944      1
  5746   3942   5161      1
  5747   3943   3944      1
  5748   3944   3946      1
  5749   3945   3947      1
  5750   3946   3948      1
  5751   3947   3949      1
  5752   3947   4061      1
  5753   3948   3950      1
  5754   3948   5167      1
  5755   3949   3952      1
  5756   3950   3951      1
  5757   3950   5168      1
  5758   3951   3953      1
  5759   3951   4069      1
  5760   3952   3953      1
  5761   3952   3954      1
  5762   3953   4068      1
  5763   3954   3956      1
  5764   3955   3956      1
  5765   3955   3957      1
  5766   3956   3958      1
  5767   3957   5177      1
  5768   3958   3961      1
  5769   3959   3960      1
  5770   3959   4077      1
  5771   3959   5176      1
  5772   3961   3963      1
  5773   3962   3963      1
  5774   3962   3964      1
  5775   3963   3965      1
  5776   3964   3967      1
  5777   3965   3966      1
  5778   3965   3967      1
  5779   3966   3968      1
  5780   3967   3969      1
  5781   3968   3970      1
  5782   3968   3971      1
  5783   3969   3971      1
  5784   3970   5184      1
  5785   3971   3973      1
  5786   3972   3973      1
  5787   3972   5184      1
  5788   3972   5190      1
  5789   3973   3975      1
  5790   3974   3977      1
  5791   3975   3976      1
  5792   3975   3977      1
  5793   3976   4089      1
  5794   3976   5190      1
  5795   3977   3979      1
  5796   3978   3980      1
  5797   3978   5195      1
  5798   3979   3982      1
  5799   3980   3983      1
  5800   3981   3982      1
  5801   3981   4089      1
  5802   3981   4094      1
  5803   3982   3985      1
  5804   3983   3984      1
  5805   3984   5197      1
  5806   3986   3988      1
  5807   3986   4096      1
  5808   3987   3989      1
  5809   3988   3989      1
  5810   3988   3990      1
  5811   3989   3991      1
  5812   3990   3992      1
  5813   3990   3994      1
  5814   3991   3995      1
  5815   3991   3996      1
  5816   3992   3995      1
  5817   3992   5210      1
  5818   3993   3994      1
  5819   3994   3998      1
  5820   3995   3997      1
  5821   3996   3999      1
  5822   3997   4003      1
  5823   3997   5211      1
  5824   3998   4001      1
  5825   3998   4108      1
  5826   3999   4000      1
  5827   3999   4002      1
  5828   4001   4004      1
  5829   4001   4114      1
  5830   4002   4003      1
  5831   4002   4004      1
  5832   4003   4005      1
  5833   4003   4006      1
  5834   4004   4007      1
  5835   4005   4007      1
  5836   4005   5217      1
  5837   4006   5220      1
  5838   4007   4008      1
  5839   4008   4010      1
  5840   4008   4011      1
  5841   4009   4011      1
  5842   4009   4116      1
  5843   4010   5220      1
  5844   4010   5224      1
  5845   4011   4012      1
  5846   4012   4013      1
  5847   4012   4014      1
  5848   4013   4015      1
  5849   4014   4016      1
  5850   4014   5227      1
  5851   4015   4017      1
  5852   4016   4017      1
  5853   4016   4019      1
  5854   4017   4021      1
  5855   4018   4020      1
  5856   4018   5233      1
  5857   4019   5233      1
  5858   4019   5234      1
  5859   4020   4022      1
  5860   4021   4130      1
  5861   4022   4023      1
  5862   4023   4028      1
  5863   4024   4025      1
  5864   4024   4026      1
  5865   4024   4028      1
  5866   4025   5239      1
  5867   4026   4027      1
  5868   4026   5240      1
  5869   4027   4134      1
  5870   4027   5242      1
  5871   4028   4030      1
  5872   4029   4030      1
  5873   4029   4134      1
  5874   4029   4136      1
  5875   4030   4031      1
  5876   4031   4034      1
  5877   4032   4035      1
  5878   4032   5247      1
  5879   4033   4144      1
  5880   4033   5244      1
  5881   4033   5250      1
  5882   4034   4036      1
  5883   4034   4037      1
  5884   4035   4038      1
  5885   4036   4040      1
  5886   4036   4144      1
  5887   4036   4147      1
  5888   4037   4041      1
  5889   4038   4039      1
  5890   4038   4042      1
  5891   4039   4040      1
  5892   4039   5250      1
  5893   4039   5252      1
  5894   4040   4043      1
  5895   4040   4151      1
  5896   4041   4043      1
  5897   4042   4044      1
  5898   4043   4155      1
  5899   4044   5252      1
  5900   4044   5254      1
  5901   4045   4050      1
  5902   4045   5254      1
  5903   4045   5255      1
  5904   4046   4049      1
  5905   4046   4158      1
  5906   4047   4048      1
  5907   4048   4051      1
  5908   4049   4053      1
  5909   4049   4162      1
  5910   4050   4051      1
  5911   4050   4052      1
  5912   4050   5260      1
  5913   4051   4053      1
  5914   4051   4054      1
  5915   4052   4055      1
  5916   4052   5257      1
  5917   4053   4056      1
  5918   4055   4057      1
  5919   4055   4164      1
  5920   4056   4058      1
  5921   4057   4060      1
  5922   4057   5266      1
  5923   4058   4059      1
  5924   4058   4060      1
  5925   4059   4061      1
  5926   4060   4062      1
  5927   4061   4063      1
  5928   4062   4063      1
  5929   4062   4066      1
  5930   4063   4064      1
  5931   4063   4068      1
  5932   4064   4065      1
  5933   4065   4171      1
  5934   4066   4067      1
  5935   4066   4070      1
  5936   4066   5268      1
  5937   4067   4171      1
  5938   4067   4172      1
  5939   4068   4071      1
  5940   4068   4072      1
  5941   4069   4070      1
  5942   4069   5170      1
  5943   4070   4072      1
  5944   4070   4073      1
  5945   4072   4074      1
  5946   4073   4075      1
  5947   4073   5276      1
  5948   4074   4075      1
  5949   4074   4076      1
  5950   4075   4181      1
  5951   4077   4078      1
  5952   4077   5279      1
  5953   4078   4079      1
  5954   4078   4080      1
  5955   4079   4081      1
  5956   4080   4082      1
  5957   4080   5283      1
  5958   4081   4082      1
  5959   4081   4084      1
  5960   4082   4085      1
  5961   4083   4086      1
  5962   4083   4190      1
  5963   4084   4086      1
  5964   4085   4086      1
  5965   4085   4194      1
  5966   4087   4088      1
  5967   4087   4205      1
  5968   4087   4207      1
  5969   4088   4091      1
  5970   4088   5296      1
  5971   4089   5298      1
  5972   4090   4092      1
  5973   4090   4205      1
  5974   4091   4092      1
  5975   4091   4093      1
  5976   4092   4095      1
  5977   4093   4094      1
  5978   4093   5303      1
  5979   4094   5302      1
  5980   4096   4097      1
  5981   4098   4099      1
  5982   4098   5306      1
  5983   4099   4101      1
  5984   4099   4216      1
  5985   4100   4103      1
  5986   4100   5304      1
  5987   4100   5306      1
  5988   4101   4102      1
  5989   4101   4104      1
  5990   4102   4106      1
  5991   4102   4219      1
  5992   4103   4104      1
  5993   4103   4105      1
  5994   4104   4107      1
  5995   4105   4108      1
  5996   4105   5209      1
  5997   4106   4107      1
  5998   4107   4109      1
  5999   4108   4109      1
  6000   4109   4112      1
  6001   4110   4111      1
  6002   4110   5318      1
  6003   4110   5424      1
  6004   4111   4113      1
  6005   4111   4226      1
  6006   4112   4113      1
  6007   4112   4114      1
  6008   4113   4115      1
  6009   4114   4116      1
  6010   4115   4117      1
  6011   4115   4118      1
  6012   4116   4118      1
  6013   4117   4119      1
  6014   4117   5322      1
  6015   4118   4120      1
  6016   4119   4122      1
  6017   4119   5329      1
  6018   4120   4121      1
  6019   4120   4122      1
  6020   4122   4123      1
  6021   4123   4124      1
  6022   4123   4125      1
  6023   4124   4127      1
  6024   4124   4240      1
  6025   4124   4243      1
  6026   4125   4126      1
  6027   4125   4128      1
  6028   4127   4129      1
  6029   4127   4248      1
  6030   4127   5338      1
  6031   4128   4129      1
  6032   4128   4130      1
  6033   4129   4131      1
  6034   4130   4132      1
  6035   4131   4132      1
  6036   4131   4133      1
  6037   4132   4134      1
  6038   4133   4135      1
  6039   4133   4254      1
  6040   4135   4137      1
  6041   4135   4138      1
  6042   4136   4140      1
  6043   4137   4139      1
  6044   4137   4258      1
  6045   4138   4142      1
  6046   4138   5348      1
  6047   4139   4140      1
  6048   4139   4143      1
  6049   4140   4141      1
  6050   4140   4145      1
  6051   4141   4142      1
  6052   4141   4144      1
  6053   4142   5353      1
  6054   4143   4146      1
  6055   4143   4260      1
  6056   4145   4146      1
  6057   4145   4147      1
  6058   4146   4148      1
  6059   4147   4149      1
  6060   4148   4152      1
  6061   4149   4152      1
  6062   4149   4155      1
  6063   4150   4153      1
  6064   4150   4154      1
  6065   4150   5355      1
  6066   4151   4154      1
  6067   4151   5359      1
  6068   4153   4157      1
  6069   4153   4266      1
  6070   4154   4156      1
  6071   4155   4158      1
  6072   4156   4158      1
  6073   4156   4160      1
  6074   4157   4160      1
  6075   4157   5466      1
  6076   4158   4159      1
  6077   4160   4161      1
  6078   4161   4163      1
  6079   4163   4165      1
  6080   4163   4166      1
  6081   4164   4166      1
  6082   4164   5366      1
  6083   4166   4167      1
  6084   4167   4168      1
  6085   4167   5373      1
  6086   4168   4169      1
  6087   4168   4279      1
  6088   4170   4173      1
  6089   4171   4173      1
  6090   4172   4174      1
  6091   4172   5270      1
  6092   4173   4175      1
  6093   4174   4175      1
  6094   4174   5381      1
  6095   4175   4177      1
  6096   4176   4178      1
  6097   4177   4178      1
  6098   4177   4179      1
  6099   4178   4287      1
  6100   4179   4289      1
  6101   4179   5382      1
  6102   4180   4181      1
  6103   4180   4182      1
  6104   4181   4183      1
  6105   4182   4186      1
  6106   4183   4185      1
  6107   4183   4187      1
  6108   4184   4188      1
  6109   4184   4293      1
  6110   4184   5389      1
  6111   4185   5387      1
  6112   4185   5393      1
  6113   4186   4187      1
  6114   4187   4189      1
  6115   4188   4298      1
  6116   4188   5395      1
  6117   4189   4190      1
  6118   4189   4192      1
  6119   4191   4192      1
  6120   4191   4194      1
  6121   4191   5393      1
  6122   4192   4196      1
  6123   4193   4195      1
  6124   4193   4301      1
  6125   4194   4197      1
  6126   4194   5287      1
  6127   4195   4198      1
  6128   4196   4199      1
  6129   4196   4200      1
  6130   4197   4199      1
  6131   4197   5401      1
  6132   4198   4200      1
  6133   4199   4201      1
  6134   4200   4202      1
  6135   4201   4204      1
  6136   4201   5403      1
  6137   4202   4205      1
  6138   4203   4204      1
  6139   4203   4206      1
  6140   4203   4310      1
  6141   4204   4208      1
  6142   4206   4210      1
  6143   4207   4212      1
  6144   4207   5406      1
  6145   4208   4209      1
  6146   4208   4211      1
  6147   4209   5405      1
  6148   4209   5518      1
  6149   4210   4213      1
  6150   4211   4213      1
  6151   4211   4214      1
  6152   4212   4214      1
  6153   4212   5409      1
  6154   4213   4215      1
  6155   4216   4217      1
  6156   4217   4219      1
  6157   4218   4220      1
  6158   4218   4327      1
  6159   4220   4221      1
  6160   4220   5414      1
  6161   4221   4224      1
  6162   4221   5417      1
  6163   4222   4223      1
  6164   4223   4225      1
  6165   4223   4332      1
  6166   4224   4225      1
  6167   4224   5423      1
  6168   4224   5424      1
  6169   4225   4226      1
  6170   4226   4228      1
  6171   4227   4336      1
  6172   4227   5423      1
  6173   4227   5431      1
  6174   4228   4229      1
  6175   4229   4230      1
  6176   4230   4232      1
  6177   4230   4340      1
  6178   4231   4233      1
  6179   4232   4233      1
  6180   4232   4236      1
  6181   4233   4237      1
  6182   4234   4235      1
  6183   4234   4238      1
  6184   4234   5436      1
  6185   4235   4236      1
  6186   4235   5440      1
  6187   4236   4350      1
  6188   4237   4238      1
  6189   4237   4239      1
  6190   4238   4240      1
  6191   4239   4241      1
  6192   4239   4243      1
  6193   4240   5445      1
  6194   4241   4242      1
  6195   4242   4244      1
  6196   4243   4245      1
  6197   4244   4246      1
  6198   4244   4354      1
  6199   4245   4247      1
  6200   4245   4249      1
  6201   4246   4250      1
  6202   4246   4251      1
  6203   4246   4359      1
  6204   4247   4248      1
  6205   4247   4250      1
  6206   4248   4254      1
  6207   4248   5447      1
  6208   4249   4252      1
  6209   4250   4253      1
  6210   4251   4252      1
  6211   4251   4255      1
  6212   4253   4256      1
  6213   4253   5451      1
  6214   4254   4257      1
  6215   4254   5342      1
  6216   4255   4365      1
  6217   4256   4257      1
  6218   4256   5453      1
  6219   4257   4258      1
  6220   4258   4259      1
  6221   4259   4261      1
  6222   4259   4262      1
  6223   4260   4262      1
  6224   4261   4263      1
  6225   4261   5457      1
  6226   4262   4264      1
  6227   4263   4266      1
  6228   4263   5461      1
  6229   4264   4265      1
  6230   4264   4267      1
  6231   4265   4268      1
  6232   4266   4267      1
  6233   4267   4270      1
  6234   4268   4381      1
  6235   4269   4270      1
  6236   4270   4271      1
  6237   4271   4273      1
  6238   4271   4274      1
  6239   4272   4273      1
  6240   4272   5466      1
  6241   4272   5470      1
  6242   4273   4275      1
  6243   4274   4276      1
  6244   4275   4388      1
  6245   4275   5472      1
  6246   4276   4277      1
  6247   4277   4278      1
  6248   4278   4280      1
  6249   4279   4280      1
  6250   4279   5481      1
  6251   4280   4282      1
  6252   4281   4283      1
  6253   4281   4398      1
  6254   4281   4401      1
  6255   4282   4283      1
  6256   4282   4284      1
  6257   4283   4285      1
  6258   4284   4286      1
  6259   4284   5487      1
  6260   4285   4288      1
  6261   4286   4290      1
  6262   4286   4407      1
  6263   4287   4288      1
  6264   4287   4289      1
  6265   4288   4291      1
  6266   4289   4290      1
  6267   4289   4293      1
  6268   4290   4292      1
  6269   4291   4295      1
  6270   4292   4294      1
  6271   4292   4412      1
  6272   4293   4296      1
  6273   4295   4296      1
  6274   4295   4297      1
  6275   4296   4298      1
  6276   4297   4299      1
  6277   4298   4301      1
  6278   4299   4300      1
  6279   4299   4302      1
  6280   4300   4419      1
  6281   4300   4422      1
  6282   4301   4302      1
  6283   4302   4304      1
  6284   4303   4305      1
  6285   4303   4423      1
  6286   4303   5503      1
  6287   4304   4305      1
  6288   4304   4307      1
  6289   4305   4306      1
  6290   4306   4311      1
  6291   4306   4427      1
  6292   4307   4310      1
  6293   4307   4312      1
  6294   4308   4309      1
  6295   4308   4310      1
  6296   4309   4311      1
  6297   4311   4431      1
  6298   4312   4313      1
  6299   4312   5505      1
  6300   4313   4314      1
  6301   4313   5509      1
  6302   4314   4315      1
  6303   4314   4317      1
  6304   4315   4316      1
  6305   4315   4431      1
  6306   4316   4318      1
  6307   4317   4319      1
  6308   4317   4320      1
  6309   4317   5518      1
  6310   4318   4319      1
  6311   4318   4322      1
  6312   4320   4321      1
  6313   4320   5519      1
  6314   4321   4441      1
  6315   4323   4324      1
  6316   4323   4326      1
  6317   4324   4325      1
  6318   4325   4327      1
  6319   4326   4328      1
  6320   4327   4329      1
  6321   4328   4329      1
  6322   4328   4331      1
  6323   4329   4332      1
  6324   4330   4331      1
  6325   4330   4452      1
  6326   4331   4333      1
  6327   4332   4334      1
  6328   4333   4334      1
  6329   4333   4335      1
  6330   4334   4336      1
  6331   4335   4337      1
  6332   4335   4454      1
  6333   4336   4338      1
  6334   4337   4338      1
  6335   4337   5531      1
  6336   4338   5533      1
  6337   4339   4340      1
  6338   4340   4345      1
  6339   4341   4342      1
  6340   4341   4344      1
  6341   4341   4461      1
  6342   4342   4346      1
  6343   4342   5533      1
  6344   4343   4345      1
  6345   4344   4348      1
  6346   4344   4466      1
  6347   4345   4347      1
  6348   4346   4349      1
  6349   4346   5537      1
  6350   4347   4349      1
  6351   4347   4350      1
  6352   4348   4349      1
  6353   4348   4351      1
  6354   4349   4352      1
  6355   4350   4354      1
  6356   4351   4353      1
  6357   4352   4355      1
  6358   4352   4357      1
  6359   4352   5543      1
  6360   4353   4356      1
  6361   4353   4470      1
  6362   4354   4357      1
  6363   4355   4356      1
  6364   4355   5548      1
  6365   4356   4471      1
  6366   4357   4358      1
  6367   4358   4359      1
  6368   4358   4360      1
  6369   4359   4362      1
  6370   4360   4361      1
  6371   4360   5554      1
  6372   4361   4362      1
  6373   4361   4363      1
  6374   4362   4365      1
  6375   4363   4364      1
  6376   4363   4479      1
  6377   4364   4483      1
  6378   4365   4367      1
  6379   4366   4368      1
  6380   4366   5453      1
  6381   4367   4369      1
  6382   4367   4370      1
  6383   4368   4369      1
  6384   4368   5563      1
  6385   4369   4371      1
  6386   4370   4372      1
  6387   4371   4372      1
  6388   4371   4373      1
  6389   4372   4374      1
  6390   4373   4490      1
  6391   4373   5565      1
  6392   4374   4375      1
  6393   4375   4379      1
  6394   4375   4490      1
  6395   4376   4377      1
  6396   4376   4381      1
  6397   4377   4380      1
  6398   4377   5571      1
  6399   4378   4380      1
  6400   4378   4493      1
  6401   4378   5574      1
  6402   4379   4382      1
  6403   4379   4497      1
  6404   4380   4382      1
  6405   4381   4383      1
  6406   4382   4383      1
  6407   4383   4384      1
  6408   4385   4387      1
  6409   4385   4389      1
  6410   4385   4501      1
  6411   4386   4389      1
  6412   4386   5579      1
  6413   4387   4391      1
  6414   4388   4390      1
  6415   4389   4393      1
  6416   4390   4392      1
  6417   4390   5585      1
  6418   4391   4392      1
  6419   4392   4393      1
  6420   4392   4394      1
  6421   4393   4507      1
  6422   4394   4395      1
  6423   4394   4397      1
  6424   4395   4398      1
  6425   4396   4397      1
  6426   4396   5587      1
  6427   4396   5592      1
  6428   4397   4401      1
  6429   4399   4400      1
  6430   4399   4402      1
  6431   4399   4507      1
  6432   4400   4404      1
  6433   4400   4511      1
  6434   4401   4403      1
  6435   4402   4405      1
  6436   4403   4407      1
  6437   4403   5592      1
  6438   4404   4406      1
  6439   4404   5596      1
  6440   4405   4406      1
  6441   4405   4408      1
  6442   4406   4410      1
  6443   4407   4409      1
  6444   4407   5599      1
  6445   4408   4411      1
  6446   4409   4410      1
  6447   4409   4412      1
  6448   4410   4413      1
  6449   4411   4414      1
  6450   4412   4415      1
  6451   4413   4414      1
  6452   4413   4415      1
  6453   4414   4416      1
  6454   4415   4417      1
  6455   4416   4418      1
  6456   4417   4418      1
  6457   4417   4419      1
  6458   4418   4421      1
  6459   4419   4423      1
  6460   4420   4424      1
  6461   4420   4527      1
  6462   4420   5610      1
  6463   4421   4424      1
  6464   4421   4425      1
  6465   4422   4425      1
  6466   4423   5612      1
  6467   4424   4426      1
  6468   4425   4427      1
  6469   4426   4428      1
  6470   4426   5613      1
  6471   4427   4428      1
  6472   4428   4429      1
  6473   4429   4430      1
  6474   4429   4432      1
  6475   4430   4431      1
  6476   4430   4433      1
  6477   4431   4434      1
  6478   4432   4436      1
  6479   4432   4538      1
  6480   4433   5509      1
  6481   4433   5623      1
  6482   4434   4435      1
  6483   4435   4437      1
  6484   4436   4439      1
  6485   4436   4542      1
  6486   4437   4440      1
  6487   4438   4439      1
  6488   4438   4441      1
  6489   4438   5623      1
  6490   4439   4442      1
  6491   4443   5629      1
  6492   4444   4447      1
  6493   4445   4446      1
  6494   4445   4447      1
  6495   4445   4448      1
  6496   4446   4547      1
  6497   4446   5633      1
  6498   4447   4449      1
  6499   4448   5629      1
  6500   4448   5635      1
  6501   4449   4450      1
  6502   4450   4451      1
  6503   4450   4551      1
  6504   4451   4453      1
  6505   4451   4455      1
  6506   4452   4453      1
  6507   4452   4454      1
  6508   4453   4458      1
  6509   4454   4457      1
  6510   4455   4456      1
  6511   4455   4457      1
  6512   4456   4552      1
  6513   4456   5639      1
  6514   4457   5642      1
  6515   4458   4459      1
  6516   4459   4460      1
  6517   4459   4462      1
  6518   4461   4463      1
  6519   4461   5531      1
  6520   4462   4464      1
  6521   4462   4466      1
  6522   4463   4465      1
  6523   4463   5647      1
  6524   4464   4468      1
  6525   4465   4466      1
  6526   4465   4467      1
  6527   4467   4469      1
  6528   4467   5649      1
  6529   4468   4469      1
  6530   4469   4562      1
  6531   4470   4472      1
  6532   4471   4472      1
  6533   4471   4473      1
  6534   4472   4474      1
  6535   4473   4475      1
  6536   4473   5656      1
  6537   4474   4475      1
  6538   4475   4476      1
  6539   4476   4574      1
  6540   4476   4575      1
  6541   4477   4478      1
  6542   4477   4574      1
  6543   4478   4482      1
  6544   4479   4480      1
  6545   4479   4481      1
  6546   4480   5556      1
  6547   4480   5664      1
  6548   4481   4482      1
  6549   4481   4483      1
  6550   4482   4484      1
  6551   4484   4486      1
  6552   4484   4487      1
  6553   4485   4486      1
  6554   4485   5664      1
  6555   4485   5665      1
  6556   4486   4488      1
  6557   4487   4489      1
  6558   4488   4489      1
  6559   4488   4491      1
  6560   4489   4492      1
  6561   4490   4493      1
  6562   4491   4494      1
  6563   4491   5671      1
  6564   4492   4495      1
  6565   4493   5674      1
  6566   4494   4496      1
  6567   4494   4591      1
  6568   4495   4496      1
  6569   4495   4497      1
  6570   4496   4498      1
  6571   4497   4499      1
  6572   4498   4500      1
  6573   4498   4595      1
  6574   4499   4500      1
  6575   4499   4501      1
  6576   4500   4502      1
  6577   4502   4503      1
  6578   4502   5684      1
  6579   4503   4504      1
  6580   4503   4506      1
  6581   4504   4505      1
  6582   4505   4604      1
  6583   4506   4608      1
  6584   4506   5688      1
  6585   4506   5779      1
  6586   4507   4508      1
  6587   4508   4510      1
  6588   4509   4510      1
  6589   4509   4610      1
  6590   4510   4513      1
  6591   4511   4512      1
  6592   4511   5588      1
  6593   4512   4513      1
  6594   4512   5698      1
  6595   4513   4514      1
  6596   4514   4515      1
  6597   4514   4517      1
  6598   4515   4519      1
  6599   4516   4517      1
  6600   4516   4617      1
  6601   4516   4621      1
  6602   4517   4518      1
  6603   4518   4520      1
  6604   4518   5702      1
  6605   4519   4521      1
  6606   4520   4522      1
  6607   4520   4523      1
  6608   4521   4523      1
  6609   4522   5704      1
  6610   4522   5709      1
  6611   4523   4525      1
  6612   4524   4528      1
  6613   4525   4528      1
  6614   4525   4529      1
  6615   4526   4633      1
  6616   4526   5708      1
  6617   4526   5715      1
  6618   4527   4529      1
  6619   4527   5709      1
  6620   4528   4530      1
  6621   4529   4531      1
  6622   4530   4532      1
  6623   4530   4635      1
  6624   4531   4532      1
  6625   4531   4534      1
  6626   4532   4533      1
  6627   4533   5715      1
  6628   4533   5813      1
  6629   4534   5719      1
  6630   4535   4536      1
  6631   4535   4537      1
  6632   4536   4539      1
  6633   4537   4538      1
  6634   4538   4540      1
  6635   4539   4541      1
  6636   4540   4541      1
  6637   4540   4542      1
  6638   4541   4543      1
  6639   4542   4545      1
  6640   4543   4544      1
  6641   4543   4546      1
  6642   4544   4651      1
  6643   4545   4546      1
  6644   4548   4549      1
  6645   4549   4550      1
  6646   4549   4661      1
  6647   4550   4667      1
  6648   4551   4553      1
  6649   4551   4554      1
  6650   4552   4553      1
  6651   4552   5736      1
  6652   4553   4555      1
  6653   4554   4556      1
  6654   4555   4557      1
  6655   4555   4558      1
  6656   4556   4558      1
  6657   4557   4560      1
  6658   4557   5741      1
  6659   4558   4559      1
  6660   4559   4560      1
  6661   4559   4561      1
  6662   4560   4669      1
  6663   4561   4676      1
  6664   4562   4563      1
  6665   4562   4564      1
  6666   4563   4566      1
  6667   4563   5747      1
  6668   4564   4565      1
  6669   4564   4567      1
  6670   4566   4567      1
  6671   4566   5755      1
  6672   4567   4569      1
  6673   4568   4570      1
  6674   4569   4570      1
  6675   4569   4572      1
  6676   4570   4571      1
  6677   4571   4573      1
  6678   4571   4680      1
  6679   4572   4573      1
  6680   4572   5757      1
  6681   4573   4684      1
  6682   4574   4576      1
  6683   4575   4579      1
  6684   4576   4577      1
  6685   4576   4580      1
  6686   4577   4578      1
  6687   4578   4686      1
  6688   4579   4580      1
  6689   4579   5760      1
  6690   4580   4581      1
  6691   4581   4582      1
  6692   4582   4583      1
  6693   4582   5763      1
  6694   4583   4585      1
  6695   4583   4586      1
  6696   4584   4585      1
  6697   4584   4694      1
  6698   4585   4587      1
  6699   4586   4588      1
  6700   4586   5880      1
  6701   4587   4589      1
  6702   4587   4592      1
  6703   4588   4593      1
  6704   4588   4701      1
  6705   4589   4591      1
  6706   4589   4593      1
  6707   4590   4592      1
  6708   4591   5773      1
  6709   4592   4594      1
  6710   4593   4596      1
  6711   4594   4595      1
  6712   4594   4598      1
  6713   4595   4597      1
  6714   4596   4599      1
  6715   4596   4600      1
  6716   4597   4599      1
  6717   4597   5773      1
  6718   4598   4601      1
  6719   4599   4602      1
  6720   4600   4603      1
  6721   4600   4706      1
  6722   4601   4604      1
  6723   4602   4605      1
  6724   4602   5779      1
  6725   4603   4605      1
  6726   4603   4712      1
  6727   4605   4606      1
  6728   4606   4607      1
  6729   4606   4609      1
  6730   4607   4608      1
  6731   4607   4610      1
  6732   4608   5784      1
  6733   4609   4611      1
  6734   4609   4716      1
  6735   4610   4615      1
  6736   4611   4613      1
  6737   4611   4616      1
  6738   4612   4616      1
  6739   4613   4618      1
  6740   4613   5787      1
  6741   4614   4615      1
  6742   4614   5784      1
  6743   4614   5791      1
  6744   4615   4617      1
  6745   4616   4619      1
  6746   4617   4620      1
  6747   4618   4619      1
  6748   4618   4622      1
  6749   4619   4623      1
  6750   4621   5791      1
  6751   4621   5796      1
  6752   4622   4625      1
  6753   4622   5912      1
  6754   4623   4624      1
  6755   4623   4625      1
  6756   4625   4626      1
  6757   4626   4630      1
  6758   4626   4730      1
  6759   4627   4628      1
  6760   4627   5708      1
  6761   4627   5796      1
  6762   4628   4631      1
  6763   4628   5799      1
  6764   4629   4630      1
  6765   4629   4732      1
  6766   4630   4632      1
  6767   4631   4632      1
  6768   4631   4633      1
  6769   4632   4634      1
  6770   4633   4635      1
  6771   4634   4637      1
  6772   4634   4735      1
  6773   4635   4636      1
  6774   4636   4637      1
  6775   4637   4639      1
  6776   4638   4640      1
  6777   4638   5809      1
  6778   4638   5810      1
  6779   4639   4743      1
  6780   4640   4641      1
  6781   4640   4738      1
  6782   4641   4643      1
  6783   4641   5936      1
  6784   4642   4643      1
  6785   4642   4644      1
  6786   4642   4743      1
  6787   4643   4645      1
  6788   4644   4646      1
  6789   4645   4647      1
  6790   4645   4648      1
  6791   4646   4648      1
  6792   4647   5820      1
  6793   4647   5825      1
  6794   4648   4649      1
  6795   4649   4651      1
  6796   4649   4653      1
  6797   4650   4651      1
  6798   4653   4654      1
  6799   4653   5825      1
  6800   4655   4658      1
  6801   4655   4660      1
  6802   4656   4659      1
  6803   4657   4658      1
  6804   4657   4659      1
  6805   4658   4661      1
  6806   4659   4662      1
  6807   4660   4663      1
  6808   4660   5834      1
  6809   4661   4664      1
  6810   4663   4664      1
  6811   4663   5841      1
  6812   4664   4665      1
  6813   4665   4666      1
  6814   4665   4667      1
  6815   4666   4668      1
  6816   4668   5843      1
  6817   4669   4673      1
  6818   4669   5743      1
  6819   4670   4672      1
  6820   4670   4674      1
  6821   4670   4675      1
  6822   4671   4672      1
  6823   4671   4673      1
  6824   4671   5851      1
  6825   4673   4674      1
  6826   4674   4676      1
  6827   4677   4678      1
  6828   4679   4681      1
  6829   4680   4681      1
  6830   4681   4682      1
  6831   4682   4683      1
  6832   4682   4684      1
  6833   4683   4685      1
  6834   4684   5866      1
  6835   4685   4688      1
  6836   4686   4690      1
  6837   4687   4689      1
  6838   4688   4691      1
  6839   4688   5871      1
  6840   4689   4690      1
  6841   4689   4692      1
  6842   4690   4693      1
  6843   4691   4692      1
  6844   4693   4694      1
  6845   4695   4696      1
  6846   4695   4697      1
  6847   4695   5881      1
  6848   4696   4700      1
  6849   4697   4698      1
  6850   4697   4701      1
  6851   4698   4699      1
  6852   4698   4700      1
  6853   4699   4702      1
  6854   4701   4703      1
  6855   4702   4703      1
  6856   4703   4704      1
  6857   4704   4706      1
  6858   4705   4707      1
  6859   4705   5890      1
  6860   4706   4709      1
  6861   4707   4708      1
  6862   4707   4711      1
  6863   4708   4709      1
  6864   4708   4710      1
  6865   4709   4712      1
  6866   4710   4714      1
  6867   4711   4713      1
  6868   4711   5895      1
  6869   4712   4713      1
  6870   4712   4716      1
  6871   4713   4717      1
  6872   4715   4716      1
  6873   4716   4718      1
  6874   4717   4718      1
  6875   4717   5901      1
  6876   4718   4719      1
  6877   4719   4720      1
  6878   4719   4721      1
  6879   4721   4722      1
  6880   4721   4724      1
  6881   4723   4724      1
  6882   4723   4725      1
  6883   4723   5907      1
  6884   4724   4726      1
  6885   4725   5913      1
  6886   4726   4727      1
  6887   4726   4728      1
  6888   4728   4729      1
  6889   4729   4731      1
  6890   4729   5918      1
  6891   4730   4731      1
  6892   4730   5916      1
  6893   4731   4733      1
  6894   4732   4733      1
  6895   4733   4734      1
  6896   4734   4735      1
  6897   4734   4737      1
  6898   4735   4738      1
  6899   4736   4737      1
  6900   4737   4739      1
  6901   4738   4739      1
  6902   4739   4741      1
  6903   4740   4743      1
  6904   4740   4744      1
  6905   4741   4745      1
  6906   4741   5930      1
  6907   4742   4744      1
  6908   4744   4747      1
  6909   4745   4748      1
  6910   4746   4747      1
  6911   4747   4749      1
  6912   4748   4749      1
  6913   4748   4750      1
  6914   4749   4751      1
  6915   4750   4753      1
  6916   4750   5943      1
  6917   4751   4752      1
  6918   4751   4753      1
  6919   4753   4755      1
  6920   4755   5949      1
  6921   4756   4758      1
  6922   4756   4759      1
  6923   4757   4759      1
  6924   4758   4760      1
  6925   4758   5953      1
  6926   4759   4761      1
  6927   4760   4762      1
  6928   4760   5960      1
  6929   4761   4762      1
  6930   4761   4763      1
  6931   4762   4764      1
  6932   4763   4765      1
  6933   4764   4765      1
  6934   4764   4768      1
  6935   4765   4767      1
  6936   4766   4767      1
  6937   4768   4770      1
  6938   4768   4874      1
  6939   4769   4772      1
  6940   4770   4772      1
  6941   4770   4773      1
  6942   4771   4773      1
  6943   4771   4877      1
  6944   4772   4774      1
  6945   4773   4775      1
  6946   4774   4776      1
  6947   4775   4776      1
  6948   4775   4777      1
  6949   4776   4778      1
  6950   4777   4882      1
  6951   4778   4779      1
  6952   4778   4781      1
  6953   4779   4780      1
  6954   4779   5973      1
  6955   4780   4782      1
  6956   4780   4882      1
  6957   4780   4889      1
  6958   4781   4782      1
  6959   4781   4784      1
  6960   4782   4785      1
  6961   4783   4784      1
  6962   4783   5975      1
  6963   4784   4786      1
  6964   4785   4787      1
  6965   4785   4891      1
  6966   4786   4787      1
  6967   4786   4789      1
  6968   4787   4788      1
  6969   4788   4790      1
  6970   4789   4790      1
  6971   4791   4793      1
  6972   4791   4896      1
  6973   4791   5979      1
  6974   4792   5867      1
  6975   4793   4796      1
  6976   4793   5984      1
  6977   4794   4795      1
  6978   4794   5984      1
  6979   4795   4796      1
  6980   4795   4798      1
  6981   4796   4799      1
  6982   4797   4798      1
  6983   4798   4801      1
  6984   4799   4802      1
  6985   4799   4904      1
  6986   4800   4801      1
  6987   4800   4903      1
  6988   4802   4803      1
  6989   4802   4909      1
  6990   4803   4805      1
  6991   4803   5992      1
  6992   4804   4805      1
  6993   4804   4806      1
  6994   4805   4807      1
  6995   4806   4808      1
  6996   4807   4809      1
  6997   4807   4914      1
  6998   4808   4809      1
  6999   4808   4810      1
  7000   4809   4812      1
  7001   4810   4811      1
  7002   4811   4815      1
  7003   4812   4813      1
  7004   4812   4816      1
  7005   4813   4917      1
  7006   4814   4815      1
  7007   4814   6000      1
  7008   4814   6003      1
  7009   4815   4816      1
  7010   4816   4817      1
  7011   4817   4818      1
  7012   4818   4822      1
  7013   4818   4823      1
  7014   4819   4820      1
  7015   4819   4822      1
  7016   4819   6006      1
  7017   4820   4824      1
  7018   4820   4923      1
  7019   4821   4822      1
  7020   4823   4825      1
  7021   4824   4826      1
  7022   4824   4928      1
  7023   4825   4828      1
  7024   4826   4827      1
  7025   4826   4829      1
  7026   4827   4828      1
  7027   4827   4830      1
  7028   4828   4831      1
  7029   4829   4936      1
  7030   4829   6011      1
  7031   4830   6012      1
  7032   4831   4832      1
  7033   4832   4833      1
  7034   4832   4837      1
  7035   4833   4834      1
  7036   4833   4941      1
  7037   4834   4836      1
  7038   4834   4943      1
  7039   4835   4836      1
  7040   4836   6020      1
  7041   4837   4839      1
  7042   4838   4840      1
  7043   4838   4949      1
  7044   4839   4840      1
  7045   4839   4841      1
  7046   4840   4844      1
  7047   4842   4844      1
  7048   4842   4949      1
  7049   4842   4953      1
  7050   4843   4845      1
  7051   4843   6027      1
  7052   4844   4847      1
  7053   4845   6035      1
  7054   4846   4848      1
  7055   4846   4954      1
  7056   4846   6032      1
  7057   4847   4849      1
  7058   4848   4849      1
  7059   4848   4850      1
  7060   4849   4959      1
  7061   4850   4852      1
  7062   4850   4853      1
  7063   4851   4852      1
  7064   4852   4854      1
  7065   4853   4855      1
  7066   4853   6038      1
  7067   4854   4855      1
  7068   4854   4856      1
  7069   4855   4857      1
  7070   4856   4858      1
  7071   4857   4859      1
  7072   4857   6050      1
  7073   4858   4859      1
  7074   4858   4860      1
  7075   4859   4861      1
  7076   4860   4862      1
  7077   4861   4863      1
  7078   4861   6057      1
  7079   4862   4863      1
  7080   4862   4864      1
  7081   4865   4868      1
  7082   4865   6064      1
  7083   4866   4867      1
  7084   4867   4868      1
  7085   4868   4869      1
  7086   4869   4870      1
  7087   4869   6071      1
  7088   4870   4871      1
  7089   4871   4872      1
  7090   4872   4877      1
  7091   4873   4875      1
  7092   4873   4982      1
  7093   4873   6072      1
  7094   4874   4876      1
  7095   4874   6074      1
  7096   4875   4876      1
  7097   4875   4878      1
  7098   4876   4879      1
  7099   4877   4879      1
  7100   4878   4880      1
  7101   4878   4988      1
  7102   4879   4880      1
  7103   4880   4881      1
  7104   4881   4990      1
  7105   4882   4884      1
  7106   4883   4884      1
  7107   4883   4885      1
  7108   4884   4888      1
  7109   4885   4886      1
  7110   4886   4887      1
  7111   4886   4999      1
  7112   4887   4888      1
  7113   4887   6088      1
  7114   4888   4889      1
  7115   4890   4891      1
  7116   4891   4895      1
  7117   4892   4893      1
  7118   4892   4896      1
  7119   4892   6093      1
  7120   4893   4897      1
  7121   4893   6094      1
  7122   4894   4898      1
  7123   4894   4899      1
  7124   4895   4896      1
  7125   4895   4899      1
  7126   4897   4900      1
  7127   4898   5006      1
  7128   4899   4900      1
  7129   4899   4901      1
  7130   4900   4902      1
  7131   4901   4903      1
  7132   4902   4904      1
  7133   4902   4905      1
  7134   4903   4904      1
  7135   4905   4906      1
  7136   4905   5013      1
  7137   4906   4907      1
  7138   4906   4908      1
  7139   4907   4910      1
  7140   4907   5015      1
  7141   4908   4911      1
  7142   4908   6104      1
  7143   4909   4913      1
  7144   4909   6103      1
  7145   4910   4912      1
  7146   4910   5021      1
  7147   4911   4912      1
  7148   4911   4913      1
  7149   4912   4915      1
  7150   4913   4914      1
  7151   4914   4916      1
  7152   4915   4916      1
  7153   4916   4917      1
  7154   4918   4920      1
  7155   4918   5032      1
  7156   4919   4922      1
  7157   4919   6119      1
  7158   4919   6213      1
  7159   4920   4922      1
  7160   4920   4924      1
  7161   4921   4923      1
  7162   4921   6118      1
  7163   4921   6119      1
  7164   4922   4925      1
  7165   4922   5033      1
  7166   4923   4924      1
  7167   4924   4926      1
  7168   4925   4927      1
  7169   4925   5035      1
  7170   4926   4927      1
  7171   4926   4928      1
  7172   4927   4929      1
  7173   4928   4932      1
  7174   4929   4930      1
  7175   4929   4933      1
  7176   4929   5038      1
  7177   4930   4934      1
  7178   4930   6125      1
  7179   4931   4933      1
  7180   4931   5039      1
  7181   4932   4935      1
  7182   4933   4935      1
  7183   4933   5046      1
  7184   4934   4935      1
  7185   4934   4936      1
  7186   4935   4937      1
  7187   4936   6127      1
  7188   4937   4938      1
  7189   4937   4939      1
  7190   4938   4940      1
  7191   4939   4944      1
  7192   4939   5051      1
  7193   4940   4941      1
  7194   4941   4942      1
  7195   4942   4943      1
  7196   4942   4945      1
  7197   4943   6019      1
  7198   4944   4945      1
  7199   4944   4946      1
  7200   4944   4948      1
  7201   4945   4947      1
  7202   4945   4950      1
  7203   4946   4952      1
  7204   4946   5061      1
  7205   4946   6133      1
  7206   4947   4949      1
  7207   4948   4951      1
  7208   4948   5058      1
  7209   4948   5062      1
  7210   4950   4952      1
  7211   4950   4953      1
  7212   4952   6141      1
  7213   4953   4954      1
  7214   4954   6143      1
  7215   4955   4956      1
  7216   4956   4957      1
  7217   4956   5072      1
  7218   4957   4958      1
  7219   4958   4960      1
  7220   4958   6152      1
  7221   4959   4961      1
  7222   4960   4962      1
  7223   4960   6038      1
  7224   4961   4962      1
  7225   4961   4963      1
  7226   4962   4964      1
  7227   4963   4966      1
  7228   4964   4965      1
  7229   4964   4967      1
  7230   4965   6156      1
  7231   4965   6161      1
  7232   4966   4967      1
  7233   4967   4969      1
  7234   4968   4970      1
  7235   4969   4970      1
  7236   4969   4971      1
  7237   4970   5087      1
  7238   4971   6161      1
  7239   4972   4974      1
  7240   4973   4975      1
  7241   4973   6165      1
  7242   4974   4975      1
  7243   4974   4976      1
  7244   4975   4977      1
  7245   4976   4979      1
  7246   4977   4978      1
  7247   4977   4980      1
  7248   4978   4982      1
  7249   4978   6068      1
  7250   4979   4980      1
  7251   4979   4981      1
  7252   4980   4983      1
  7253   4981   4985      1
  7254   4982   4984      1
  7255   4983   4984      1
  7256   4983   4986      1
  7257   4984   6176      1
  7258   4985   4987      1
  7259   4985   5105      1
  7260   4986   4987      1
  7261   4986   4988      1
  7262   4987   4989      1
  7263   4988   4990      1
  7264   4989   4992      1
  7265   4991   4994      1
  7266   4991   5109      1
  7267   4991   6179      1
  7268   4992   4996      1
  7269   4993   4997      1
  7270   4993   6085      1
  7271   4993   6181      1
  7272   4994   4997      1
  7273   4994   4998      1
  7274   4995   4996      1
  7275   4997   4999      1
  7276   4998   5000      1
  7277   4998   5113      1
  7278   4999   5001      1
  7279   5000   5001      1
  7280   5000   5002      1
  7281   5001   5004      1
  7282   5002   5003      1
  7283   5002   5118      1
  7284   5003   5004      1
  7285   5004   5005      1
  7286   5005   5006      1
  7287   5006   5008      1
  7288   5007   5009      1
  7289   5007   5127      1
  7290   5007   6190      1
  7291   5008   5010      1
  7292   5008   5011      1
  7293   5009   5012      1
  7294   5009   5135      1
  7295   5010   5012      1
  7296   5010   5013      1
  7297   5012   5014      1
  7298   5013   5015      1
  7299   5014   5016      1
  7300   5014   5017      1
  7301   5015   5016      1
  7302   5016   5018      1
  7303   5017   5019      1
  7304   5017   5137      1
  7305   5018   5020      1
  7306   5019   5020      1
  7307   5019   5140      1
  7308   5021   5024      1
  7309   5022   5023      1
  7310   5022   5025      1
  7311   5022   6207      1
  7312   5023   5024      1
  7313   5024   5027      1
  7314   5025   5026      1
  7315   5025   6208      1
  7316   5025   6210      1
  7317   5026   5029      1
  7318   5026   5147      1
  7319   5027   5028      1
  7320   5027   5030      1
  7321   5029   5030      1
  7322   5029   5150      1
  7323   5030   5031      1
  7324   5031   5033      1
  7325   5031   5034      1
  7326   5032   5033      1
  7327   5034   6212      1
  7328   5034   6213      1
  7329   5034   6219      1
  7330   5035   5038      1
  7331   5035   6219      1
  7332   5036   5037      1
  7333   5036   5156      1
  7334   5036   5160      1
  7335   5037   5041      1
  7336   5038   5043      1
  7337   5039   5041      1
  7338   5040   5042      1
  7339   5040   5043      1
  7340   5040   6224      1
  7341   5041   5044      1
  7342   5042   5045      1
  7343   5042   5160      1
  7344   5042   5165      1
  7345   5043   5044      1
  7346   5043   6231      1
  7347   5044   5045      1
  7348   5044   5046      1
  7349   5045   5047      1
  7350   5045   5048      1
  7351   5046   5051      1
  7352   5047   5050      1
  7353   5047   5167      1
  7354   5048   5049      1
  7355   5048   5054      1
  7356   5048   6232      1
  7357   5049   5052      1
  7358   5049   6231      1
  7359   5050   5053      1
  7360   5051   5055      1
  7361   5052   5056      1
  7362   5052   6238      1
  7363   5053   5054      1
  7364   5053   5055      1
  7365   5054   5057      1
  7366   5054   5173      1
  7367   5055   5056      1
  7368   5055   5058      1
  7369   5056   5057      1
  7370   5056   5061      1
  7371   5057   5059      1
  7372   5058   5060      1
  7373   5059   5175      1
  7374   5059   6242      1
  7375   5060   5063      1
  7376   5061   5062      1
  7377   5061   6243      1
  7378   5062   5065      1
  7379   5063   5064      1
  7380   5063   5065      1
  7381   5064   5066      1
  7382   5064   5179      1
  7383   5065   5067      1
  7384   5066   5067      1
  7385   5066   5182      1
  7386   5067   5068      1
  7387   5068   5071      1
  7388   5068   5073      1
  7389   5069   5071      1
  7390   5069   5182      1
  7391   5069   6369      1
  7392   5070   5072      1
  7393   5070   5074      1
  7394   5071   6253      1
  7395   5072   5073      1
  7396   5073   5075      1
  7397   5074   5076      1
  7398   5075   5078      1
  7399   5075   6253      1
  7400   5076   5077      1
  7401   5076   5079      1
  7402   5077   5081      1
  7403   5077   5186      1
  7404   5078   5080      1
  7405   5078   6154      1
  7406   5079   5083      1
  7407   5080   5082      1
  7408   5080   5084      1
  7409   5081   5083      1
  7410   5081   5085      1
  7411   5082   5086      1
  7412   5082   6257      1
  7413   5083   5084      1
  7414   5084   5087      1
  7415   5085   5086      1
  7416   5085   5193      1
  7417   5086   5088      1
  7418   5087   5089      1
  7419   5088   5090      1
  7420   5088   6265      1
  7421   5089   5090      1
  7422   5092   5093      1
  7423   5092   5095      1
  7424   5093   5096      1
  7425   5094   5095      1
  7426   5095   5097      1
  7427   5096   5098      1
  7428   5096   6168      1
  7429   5097   5098      1
  7430   5097   5099      1
  7431   5098   5103      1
  7432   5099   5100      1
  7433   5099   5101      1
  7434   5101   5211      1
  7435   5101   5212      1
  7436   5102   5103      1
  7437   5102   5212      1
  7438   5102   6273      1
  7439   5103   5104      1
  7440   5104   5106      1
  7441   5106   5108      1
  7442   5107   5110      1
  7443   5108   5110      1
  7444   5108   5111      1
  7445   5109   5111      1
  7446   5109   6286      1
  7447   5110   5112      1
  7448   5110   5114      1
  7449   5111   5113      1
  7450   5112   5220      1
  7451   5112   5223      1
  7452   5113   5115      1
  7453   5114   5115      1
  7454   5115   5118      1
  7455   5116   5117      1
  7456   5116   5120      1
  7457   5116   6289      1
  7458   5117   5121      1
  7459   5117   5223      1
  7460   5119   5121      1
  7461   5120   5122      1
  7462   5120   6294      1
  7463   5121   5123      1
  7464   5121   5231      1
  7465   5122   5123      1
  7466   5122   5124      1
  7467   5123   5125      1
  7468   5124   5127      1
  7469   5124   6297      1
  7470   5125   5126      1
  7471   5125   5130      1
  7472   5126   5127      1
  7473   5126   5128      1
  7474   5129   5131      1
  7475   5129   6300      1
  7476   5129   6305      1
  7477   5130   5132      1
  7478   5130   5133      1
  7479   5131   5132      1
  7480   5131   5238      1
  7481   5132   5239      1
  7482   5134   5135      1
  7483   5134   5136      1
  7484   5134   6305      1
  7485   5135   5137      1
  7486   5136   5138      1
  7487   5136   6312      1
  7488   5137   5138      1
  7489   5138   5139      1
  7490   5139   5140      1
  7491   5139   5141      1
  7492   5140   5143      1
  7493   5141   5142      1
  7494   5141   5251      1
  7495   5142   5144      1
  7496   5142   5247      1
  7497   5143   5144      1
  7498   5145   5251      1
  7499   5145   6324      1
  7500   5145   6440      1
  7501   5146   5147      1
  7502   5146   6321      1
  7503   5146   6324      1
  7504   5147   5148      1
  7505   5148   5149      1
  7506   5148   5150      1
  7507   5149   5151      1
  7508   5149   5152      1
  7509   5150   5154      1
  7510   5151   5254      1
  7511   5151   5258      1
  7512   5152   5153      1
  7513   5152   5256      1
  7514   5153   5155      1
  7515   5153   6332      1
  7516   5154   5155      1
  7517   5154   5156      1
  7518   5155   5158      1
  7519   5157   5159      1
  7520   5157   5260      1
  7521   5158   5160      1
  7522   5158   6336      1
  7523   5159   5161      1
  7524   5159   5263      1
  7525   5160   5162      1
  7526   5161   5162      1
  7527   5162   5163      1
  7528   5163   5164      1
  7529   5163   6343      1
  7530   5164   5166      1
  7531   5164   5267      1
  7532   5165   6232      1
  7533   5165   6343      1
  7534   5166   5272      1
  7535   5166   6348      1
  7536   5167   5169      1
  7537   5168   5169      1
  7538   5168   5170      1
  7539   5169   5171      1
  7540   5170   5278      1
  7541   5171   5172      1
  7542   5171   5173      1
  7543   5172   5174      1
  7544   5172   6353      1
  7545   5173   5175      1
  7546   5174   5178      1
  7547   5174   5278      1
  7548   5174   5280      1
  7549   5175   6358      1
  7550   5176   5177      1
  7551   5176   5178      1
  7552   5177   5179      1
  7553   5178   5180      1
  7554   5179   5180      1
  7555   5180   5181      1
  7556   5181   5182      1
  7557   5181   6358      1
  7558   5183   5187      1
  7559   5183   5290      1
  7560   5184   5186      1
  7561   5185   5186      1
  7562   5185   5187      1
  7563   5185   5188      1
  7564   5187   5189      1
  7565   5188   5191      1
  7566   5188   6371      1
  7567   5189   5190      1
  7568   5189   5294      1
  7569   5191   5192      1
  7570   5191   6377      1
  7571   5192   5193      1
  7572   5192   5196      1
  7573   5193   5195      1
  7574   5194   5196      1
  7575   5194   5299      1
  7576   5194   6381      1
  7577   5195   5197      1
  7578   5196   5199      1
  7579   5197   5198      1
  7580   5198   5199      1
  7581   5198   5302      1
  7582   5199   5200      1
  7583   5201   5202      1
  7584   5201   5203      1
  7585   5202   5205      1
  7586   5203   5204      1
  7587   5204   5207      1
  7588   5204   5307      1
  7589   5205   5206      1
  7590   5205   6390      1
  7591   5206   5207      1
  7592   5206   6393      1
  7593   5207   5208      1
  7594   5208   5313      1
  7595   5208   6397      1
  7596   5209   5210      1
  7597   5209   5313      1
  7598   5210   5213      1
  7599   5211   5213      1
  7600   5212   5214      1
  7601   5213   5215      1
  7602   5214   5216      1
  7603   5214   6400      1
  7604   5215   5216      1
  7605   5215   5217      1
  7606   5216   5218      1
  7607   5217   5219      1
  7608   5218   5221      1
  7609   5218   6402      1
  7610   5219   5221      1
  7611   5219   5325      1
  7612   5221   5222      1
  7613   5222   5225      1
  7614   5222   5226      1
  7615   5223   5224      1
  7616   5224   5227      1
  7617   5225   6408      1
  7618   5225   6413      1
  7619   5226   5228      1
  7620   5226   5331      1
  7621   5227   5228      1
  7622   5228   5229      1
  7623   5229   5234      1
  7624   5229   5336      1
  7625   5230   5232      1
  7626   5230   6413      1
  7627   5230   6417      1
  7628   5231   5232      1
  7629   5231   5233      1
  7630   5232   5235      1
  7631   5234   5235      1
  7632   5235   5237      1
  7633   5236   5237      1
  7634   5236   6417      1
  7635   5236   6422      1
  7636   5237   5344      1
  7637   5238   5241      1
  7638   5238   6425      1
  7639   5239   5240      1
  7640   5240   5241      1
  7641   5241   5243      1
  7642   5242   5244      1
  7643   5242   5345      1
  7644   5243   5245      1
  7645   5243   5246      1
  7646   5244   5246      1
  7647   5245   5249      1
  7648   5245   6429      1
  7649   5246   5248      1
  7650   5247   5248      1
  7651   5248   5250      1
  7652   5249   5251      1
  7653   5249   6433      1
  7654   5252   5253      1
  7655   5253   5255      1
  7656   5253   5359      1
  7657   5255   5257      1
  7658   5256   5258      1
  7659   5256   6449      1
  7660   5257   5364      1
  7661   5258   5259      1
  7662   5259   5260      1
  7663   5259   5261      1
  7664   5261   5262      1
  7665   5261   5263      1
  7666   5262   5264      1
  7667   5262   6453      1
  7668   5263   5267      1
  7669   5264   5265      1
  7670   5264   5374      1
  7671   5265   5266      1
  7672   5265   5375      1
  7673   5266   5268      1
  7674   5267   5269      1
  7675   5268   5270      1
  7676   5268   5271      1
  7677   5269   5271      1
  7678   5269   5272      1
  7679   5270   5375      1
  7680   5271   5274      1
  7681   5272   5273      1
  7682   5273   5275      1
  7683   5273   6465      1
  7684   5274   5275      1
  7685   5274   5276      1
  7686   5275   5277      1
  7687   5276   5384      1
  7688   5277   5385      1
  7689   5277   6470      1
  7690   5278   5279      1
  7691   5279   5281      1
  7692   5280   5282      1
  7693   5280   6472      1
  7694   5281   5282      1
  7695   5281   5283      1
  7696   5282   5284      1
  7697   5283   5285      1
  7698   5284   5286      1
  7699   5284   6482      1
  7700   5285   5286      1
  7701   5285   5287      1
  7702   5285   5394      1
  7703   5286   5288      1
  7704   5287   5289      1
  7705   5288   5289      1
  7706   5288   5291      1
  7707   5289   5292      1
  7708   5290   5291      1
  7709   5290   6368      1
  7710   5291   6492      1
  7711   5292   5293      1
  7712   5292   5401      1
  7713   5293   5295      1
  7714   5293   5296      1
  7715   5294   5298      1
  7716   5294   5299      1
  7717   5295   5297      1
  7718   5295   5300      1
  7719   5296   5298      1
  7720   5297   5301      1
  7721   5297   5404      1
  7722   5299   5300      1
  7723   5300   6499      1
  7724   5301   5408      1
  7725   5301   6502      1
  7726   5303   5409      1
  7727   5304   5307      1
  7728   5305   5307      1
  7729   5305   5308      1
  7730   5306   5310      1
  7731   5308   5309      1
  7732   5308   5310      1
  7733   5309   5311      1
  7734   5309   6512      1
  7735   5310   5312      1
  7736   5311   5419      1
  7737   5311   6516      1
  7738   5312   5315      1
  7739   5312   5420      1
  7740   5313   5314      1
  7741   5314   5315      1
  7742   5314   5316      1
  7743   5315   5317      1
  7744   5316   5319      1
  7745   5316   6519      1
  7746   5317   5318      1
  7747   5317   5320      1
  7748   5318   5322      1
  7749   5319   5320      1
  7750   5319   5321      1
  7751   5320   5323      1
  7752   5321   5326      1
  7753   5321   6526      1
  7754   5322   5323      1
  7755   5323   5324      1
  7756   5324   5433      1
  7757   5324   5437      1
  7758   5325   5326      1
  7759   5325   5327      1
  7760   5326   5328      1
  7761   5327   5329      1
  7762   5328   5331      1
  7763   5328   6531      1
  7764   5329   5332      1
  7765   5330   5332      1
  7766   5330   5437      1
  7767   5330   5442      1
  7768   5331   5334      1
  7769   5332   5335      1
  7770   5333   5442      1
  7771   5333   5444      1
  7772   5333   6534      1
  7773   5334   5337      1
  7774   5334   6538      1
  7775   5335   5336      1
  7776   5335   5338      1
  7777   5336   5337      1
  7778   5337   5339      1
  7779   5338   5340      1
  7780   5339   5341      1
  7781   5339   6542      1
  7782   5340   5341      1
  7783   5340   5342      1
  7784   5341   5343      1
  7785   5342   5346      1
  7786   5343   5347      1
  7787   5343   6548      1
  7788   5344   5345      1
  7789   5344   6546      1
  7790   5346   5347      1
  7791   5346   5348      1
  7792   5347   5349      1
  7793   5348   5350      1
  7794   5349   5350      1
  7795   5349   6555      1
  7796   5350   5351      1
  7797   5351   5353      1
  7798   5351   5354      1
  7799   5352   5354      1
  7800   5352   6555      1
  7801   5352   6562      1
  7802   5353   5355      1
  7803   5354   5356      1
  7804   5355   5357      1
  7805   5356   5357      1
  7806   5356   5358      1
  7807   5357   5360      1
  7808   5358   5361      1
  7809   5358   6563      1
  7810   5359   5360      1
  7811   5360   5362      1
  7812   5361   5363      1
  7813   5361   6566      1
  7814   5362   5363      1
  7815   5362   5364      1
  7816   5363   5365      1
  7817   5364   5366      1
  7818   5365   5367      1
  7819   5365   6569      1
  7820   5366   5368      1
  7821   5367   5368      1
  7822   5367   5369      1
  7823   5368   5370      1
  7824   5369   5371      1
  7825   5369   6574      1
  7826   5370   5371      1
  7827   5370   5373      1
  7828   5371   5372      1
  7829   5372   5476      1
  7830   5372   6681      1
  7831   5373   5479      1
  7832   5374   5376      1
  7833   5374   6578      1
  7834   5375   5377      1
  7835   5376   5377      1
  7836   5376   6582      1
  7837   5377   5378      1
  7838   5378   5379      1
  7839   5378   5381      1
  7840   5379   5380      1
  7841   5379   5485      1
  7842   5380   6582      1
  7843   5380   6686      1
  7844   5381   5382      1
  7845   5382   5487      1
  7846   5383   5386      1
  7847   5383   5490      1
  7848   5383   6691      1
  7849   5384   5385      1
  7850   5384   5387      1
  7851   5385   5390      1
  7852   5386   5388      1
  7853   5388   5390      1
  7854   5388   6590      1
  7855   5389   5492      1
  7856   5390   5391      1
  7857   5390   6475      1
  7858   5391   5392      1
  7859   5391   5394      1
  7860   5392   5393      1
  7861   5392   5396      1
  7862   5394   5397      1
  7863   5395   5396      1
  7864   5395   5496      1
  7865   5396   5398      1
  7866   5397   5399      1
  7867   5397   6484      1
  7868   5398   5399      1
  7869   5398   5400      1
  7870   5399   6599      1
  7871   5400   5504      1
  7872   5400   6706      1
  7873   5401   5402      1
  7874   5402   5403      1
  7875   5402   5404      1
  7876   5403   5405      1
  7877   5404   5406      1
  7878   5405   5512      1
  7879   5406   5407      1
  7880   5407   5408      1
  7881   5407   5409      1
  7882   5408   5410      1
  7883   5410   6508      1
  7884   5411   6617      1
  7885   5412   5414      1
  7886   5412   5523      1
  7887   5413   5415      1
  7888   5414   5418      1
  7889   5415   5416      1
  7890   5415   5417      1
  7891   5416   5419      1
  7892   5416   6617      1
  7893   5417   5420      1
  7894   5418   5421      1
  7895   5418   5527      1
  7896   5419   5422      1
  7897   5420   5424      1
  7898   5421   5423      1
  7899   5421   5530      1
  7900   5422   5426      1
  7901   5422   6625      1
  7902   5424   5425      1
  7903   5425   5426      1
  7904   5425   5429      1
  7905   5426   5430      1
  7906   5427   5428      1
  7907   5427   5429      1
  7908   5427   5530      1
  7909   5428   6629      1
  7910   5428   6733      1
  7911   5429   5432      1
  7912   5430   5433      1
  7913   5430   6631      1
  7914   5431   5432      1
  7915   5431   5535      1
  7916   5432   5434      1
  7917   5433   5435      1
  7918   5434   5436      1
  7919   5434   5438      1
  7920   5435   6534      1
  7921   5435   6633      1
  7922   5436   5437      1
  7923   5438   5440      1
  7924   5438   5441      1
  7925   5439   5441      1
  7926   5439   6639      1
  7927   5439   6746      1
  7928   5440   5537      1
  7929   5440   5540      1
  7930   5441   5541      1
  7931   5442   5443      1
  7932   5443   5445      1
  7933   5443   5446      1
  7934   5444   5446      1
  7935   5444   6644      1
  7936   5445   5447      1
  7937   5446   5448      1
  7938   5447   5449      1
  7939   5448   5450      1
  7940   5448   6647      1
  7941   5449   5450      1
  7942   5449   5451      1
  7943   5450   5452      1
  7944   5451   5551      1
  7945   5452   5551      1
  7946   5452   5553      1
  7947   5453   5454      1
  7948   5454   5456      1
  7949   5454   5457      1
  7950   5455   5456      1
  7951   5455   5559      1
  7952   5455   6659      1
  7953   5456   5566      1
  7954   5457   5459      1
  7955   5458   5460      1
  7956   5458   6659      1
  7957   5458   6662      1
  7958   5459   5460      1
  7959   5459   5461      1
  7960   5460   5462      1
  7961   5461   5463      1
  7962   5462   5463      1
  7963   5462   5464      1
  7964   5463   5465      1
  7965   5464   5467      1
  7966   5464   6671      1
  7967   5465   5466      1
  7968   5465   5468      1
  7969   5467   5468      1
  7970   5467   5469      1
  7971   5468   5471      1
  7972   5469   5473      1
  7973   5469   6674      1
  7974   5470   5471      1
  7975   5470   5472      1
  7976   5471   5475      1
  7977   5472   5474      1
  7978   5473   5476      1
  7979   5473   6677      1
  7980   5474   5477      1
  7981   5474   5585      1
  7982   5475   5476      1
  7983   5475   5479      1
  7984   5477   5480      1
  7985   5477   5583      1
  7986   5478   5480      1
  7987   5478   6677      1
  7988   5478   6792      1
  7989   5479   5481      1
  7990   5480   5482      1
  7991   5481   5483      1
  7992   5482   5483      1
  7993   5482   5590      1
  7994   5483   5484      1
  7995   5484   5485      1
  7996   5484   5487      1
  7997   5485   5486      1
  7998   5486   5488      1
  7999   5486   6686      1
  8000   5488   6685      1
  8001   5489   5490      1
  8002   5489   5491      1
  8003   5489   6692      1
  8004   5490   5492      1
  8005   5491   5493      1
  8006   5491   6697      1
  8007   5492   5494      1
  8008   5493   5495      1
  8009   5493   5608      1
  8010   5494   5495      1
  8011   5494   5496      1
  8012   5495   5497      1
  8013   5496   5498      1
  8014   5497   5498      1
  8015   5497   5499      1
  8016   5498   5502      1
  8017   5499   5501      1
  8018   5499   5503      1
  8019   5499   5611      1
  8020   5500   5501      1
  8021   5500   6703      1
  8022   5500   6708      1
  8023   5501   5614      1
  8024   5502   5504      1
  8025   5502   5505      1
  8026   5503   5507      1
  8027   5503   5616      1
  8028   5504   5508      1
  8029   5505   5507      1
  8030   5506   5508      1
  8031   5506   6708      1
  8032   5506   6714      1
  8033   5507   5509      1
  8034   5508   5510      1
  8035   5510   5511      1
  8036   5510   5512      1
  8037   5511   5513      1
  8038   5511   6714      1
  8039   5512   5515      1
  8040   5513   5514      1
  8041   5513   5517      1
  8042   5514   5624      1
  8043   5514   6719      1
  8044   5515   5517      1
  8045   5515   5518      1
  8046   5516   5519      1
  8047   5516   5623      1
  8048   5516   5624      1
  8049   5517   5520      1
  8050   5518   5521      1
  8051   5522   5523      1
  8052   5522   5524      1
  8053   5523   5526      1
  8054   5524   5525      1
  8055   5524   6726      1
  8056   5525   5636      1
  8057   5526   5527      1
  8058   5526   6726      1
  8059   5527   5528      1
  8060   5528   5529      1
  8061   5528   5530      1
  8062   5529   6731      1
  8063   5529   6733      1
  8064   5531   5642      1
  8065   5532   5534      1
  8066   5532   5643      1
  8067   5532   6735      1
  8068   5533   5535      1
  8069   5534   5536      1
  8070   5534   6739      1
  8071   5535   5537      1
  8072   5536   5644      1
  8073   5536   5652      1
  8074   5538   5539      1
  8075   5538   6746      1
  8076   5539   5542      1
  8077   5539   5652      1
  8078   5540   5541      1
  8079   5540   5543      1
  8080   5541   5544      1
  8081   5542   5549      1
  8082   5542   6751      1
  8083   5543   5545      1
  8084   5544   5545      1
  8085   5544   5546      1
  8086   5545   5547      1
  8087   5546   6751      1
  8088   5546   6754      1
  8089   5547   5548      1
  8090   5547   5549      1
  8091   5548   5655      1
  8092   5549   5550      1
  8093   5549   5653      1
  8094   5550   5552      1
  8095   5550   6760      1
  8096   5551   5555      1
  8097   5552   5661      1
  8098   5553   5557      1
  8099   5553   6648      1
  8100   5554   5555      1
  8101   5554   5556      1
  8102   5555   5558      1
  8103   5556   5661      1
  8104   5557   5558      1
  8105   5557   5559      1
  8106   5558   5560      1
  8107   5559   6767      1
  8108   5560   5562      1
  8109   5560   5563      1
  8110   5561   5562      1
  8111   5561   6763      1
  8112   5561   6769      1
  8113   5562   5564      1
  8114   5563   5565      1
  8115   5564   5666      1
  8116   5564   5668      1
  8117   5565   5668      1
  8118   5566   5567      1
  8119   5567   5568      1
  8120   5567   5571      1
  8121   5568   5569      1
  8122   5568   5570      1
  8123   5569   6665      1
  8124   5570   5573      1
  8125   5570   6775      1
  8126   5571   5572      1
  8127   5572   5573      1
  8128   5572   5574      1
  8129   5573   5575      1
  8130   5574   5678      1
  8131   5575   5576      1
  8132   5575   6780      1
  8133   5575   6878      1
  8134   5576   5577      1
  8135   5576   5578      1
  8136   5577   5581      1
  8137   5577   5680      1
  8138   5578   5582      1
  8139   5578   6783      1
  8140   5579   5581      1
  8141   5579   5683      1
  8142   5580   5583      1
  8143   5580   6674      1
  8144   5580   6783      1
  8145   5581   5584      1
  8146   5582   5583      1
  8147   5582   5584      1
  8148   5584   5586      1
  8149   5585   5586      1
  8150   5586   5587      1
  8151   5587   5588      1
  8152   5588   5692      1
  8153   5589   5593      1
  8154   5589   6794      1
  8155   5589   6797      1
  8156   5590   5594      1
  8157   5590   5595      1
  8158   5591   5593      1
  8159   5591   5597      1
  8160   5591   5695      1
  8161   5592   5595      1
  8162   5593   5598      1
  8163   5594   6685      1
  8164   5594   6797      1
  8165   5595   5599      1
  8166   5596   5597      1
  8167   5597   5600      1
  8168   5598   5600      1
  8169   5598   6805      1
  8170   5599   5601      1
  8171   5600   5602      1
  8172   5601   5602      1
  8173   5602   5603      1
  8174   5603   5604      1
  8175   5603   5606      1
  8176   5604   5609      1
  8177   5604   5706      1
  8178   5604   6811      1
  8179   5605   5607      1
  8180   5605   5706      1
  8181   5605   5709      1
  8182   5606   5607      1
  8183   5606   5608      1
  8184   5607   5610      1
  8185   5608   5611      1
  8186   5609   5714      1
  8187   5609   6814      1
  8188   5610   5612      1
  8189   5611   5612      1
  8190   5613   5615      1
  8191   5613   5719      1
  8192   5614   5617      1
  8193   5615   5616      1
  8194   5616   5617      1
  8195   5617   5619      1
  8196   5618   5620      1
  8197   5618   5720      1
  8198   5619   5620      1
  8199   5619   5622      1
  8200   5620   5621      1
  8201   5621   5625      1
  8202   5621   5724      1
  8203   5622   5624      1
  8204   5622   5625      1
  8205   5625   5626      1
  8206   5626   5627      1
  8207   5627   5726      1
  8208   5628   5630      1
  8209   5628   5634      1
  8210   5629   5631      1
  8211   5630   5731      1
  8212   5631   5632      1
  8213   5632   5634      1
  8214   5632   5636      1
  8215   5633   5635      1
  8216   5633   5733      1
  8217   5634   5635      1
  8218   5636   6841      1
  8219   5637   5638      1
  8220   5637   5639      1
  8221   5637   5740      1
  8222   5638   5640      1
  8223   5638   6845      1
  8224   5639   5641      1
  8225   5640   5641      1
  8226   5640   5643      1
  8227   5641   5642      1
  8228   5643   5644      1
  8229   5644   5646      1
  8230   5645   5648      1
  8231   5645   6849      1
  8232   5645   6949      1
  8233   5646   5647      1
  8234   5646   5648      1
  8235   5647   5649      1
  8236   5648   5650      1
  8237   5649   5651      1
  8238   5650   5651      1
  8239   5650   5746      1
  8240   5651   5747      1
  8241   5652   6855      1
  8242   5653   5654      1
  8243   5653   5655      1
  8244   5654   5657      1
  8245   5654   6859      1
  8246   5655   5656      1
  8247   5656   5658      1
  8248   5657   5658      1
  8249   5657   5659      1
  8250   5658   5755      1
  8251   5659   5758      1
  8252   5659   6861      1
  8253   5660   5662      1
  8254   5660   6862      1
  8255   5661   5663      1
  8256   5662   5663      1
  8257   5663   5664      1
  8258   5665   5667      1
  8259   5665   5671      1
  8260   5666   5670      1
  8261   5666   6769      1
  8262   5667   5668      1
  8263   5667   5669      1
  8264   5669   5670      1
  8265   5669   5673      1
  8266   5670   6872      1
  8267   5671   5674      1
  8268   5672   5673      1
  8269   5672   5768      1
  8270   5672   6976      1
  8271   5673   5675      1
  8272   5674   5676      1
  8273   5675   5676      1
  8274   5675   5677      1
  8275   5676   5678      1
  8276   5677   5679      1
  8277   5677   5771      1
  8278   5678   5680      1
  8279   5679   5682      1
  8280   5679   5773      1
  8281   5680   5683      1
  8282   5681   5682      1
  8283   5681   6881      1
  8284   5681   6985      1
  8285   5682   5685      1
  8286   5683   5684      1
  8287   5684   5686      1
  8288   5685   5686      1
  8289   5685   5687      1
  8290   5686   5688      1
  8291   5687   5689      1
  8292   5687   6884      1
  8293   5688   5689      1
  8294   5688   5691      1
  8295   5689   5694      1
  8296   5689   5782      1
  8297   5690   5693      1
  8298   5690   5694      1
  8299   5690   6886      1
  8300   5691   5692      1
  8301   5691   5696      1
  8302   5692   5695      1
  8303   5693   5695      1
  8304   5693   6793      1
  8305   5694   5697      1
  8306   5696   5697      1
  8307   5696   5698      1
  8308   5697   5699      1
  8309   5698   5700      1
  8310   5699   5701      1
  8311   5699   6895      1
  8312   5700   5701      1
  8313   5700   5702      1
  8314   5701   5703      1
  8315   5702   5704      1
  8316   5703   5705      1
  8317   5703   6897      1
  8318   5704   5705      1
  8319   5705   5706      1
  8320   5706   5710      1
  8321   5707   5708      1
  8322   5707   5711      1
  8323   5707   5802      1
  8324   5710   5711      1
  8325   5710   5712      1
  8326   5711   5713      1
  8327   5712   5714      1
  8328   5712   5716      1
  8329   5713   5715      1
  8330   5713   5716      1
  8331   5714   5717      1
  8332   5716   5718      1
  8333   5717   5720      1
  8334   5717   6819      1
  8335   5718   5719      1
  8336   5718   5720      1
  8337   5721   5812      1
  8338   5721   5817      1
  8339   5721   6911      1
  8340   5722   5723      1
  8341   5722   6917      1
  8342   5722   6918      1
  8343   5723   5724      1
  8344   5723   5725      1
  8345   5724   5726      1
  8346   5725   5727      1
  8347   5725   5828      1
  8348   5726   5727      1
  8349   5728   5730      1
  8350   5729   5730      1
  8351   5729   5732      1
  8352   5729   5831      1
  8353   5730   5734      1
  8354   5731   5733      1
  8355   5731   5735      1
  8356   5732   5737      1
  8357   5732   5837      1
  8358   5733   5736      1
  8359   5734   5736      1
  8360   5734   5738      1
  8361   5735   5740      1
  8362   5735   6938      1
  8363   5737   5738      1
  8364   5737   5739      1
  8365   5738   5741      1
  8366   5739   5845      1
  8367   5739   6940      1
  8368   5740   6943      1
  8369   5741   5742      1
  8370   5742   5845      1
  8371   5742   5848      1
  8372   5743   5744      1
  8373   5743   5848      1
  8374   5744   5748      1
  8375   5745   5746      1
  8376   5745   5750      1
  8377   5745   6952      1
  8378   5746   5749      1
  8379   5747   5749      1
  8380   5748   5752      1
  8381   5749   5751      1
  8382   5750   5751      1
  8383   5750   6959      1
  8384   5751   5753      1
  8385   5752   5754      1
  8386   5752   5859      1
  8387   5753   5756      1
  8388   5753   5758      1
  8389   5754   5757      1
  8390   5754   5865      1
  8391   5755   5756      1
  8392   5756   5757      1
  8393   5758   6964      1
  8394   5759   5760      1
  8395   5759   5761      1
  8396   5760   5763      1
  8397   5761   5762      1
  8398   5761   5764      1
  8399   5762   6975      1
  8400   5762   6976      1
  8401   5763   5764      1
  8402   5764   5766      1
  8403   5765   5766      1
  8404   5765   5874      1
  8405   5765   6975      1
  8406   5766   5767      1
  8407   5766   5877      1
  8408   5767   5768      1
  8409   5767   5769      1
  8410   5768   5771      1
  8411   5769   5770      1
  8412   5769   5772      1
  8413   5770   5883      1
  8414   5770   5888      1
  8415   5771   5772      1
  8416   5771   6985      1
  8417   5772   5774      1
  8418   5774   5775      1
  8419   5774   5776      1
  8420   5775   5888      1
  8421   5775   5892      1
  8422   5776   5778      1
  8423   5776   6988      1
  8424   5777   5778      1
  8425   5777   5780      1
  8426   5777   5892      1
  8427   5778   6994      1
  8428   5779   5781      1
  8429   5780   5781      1
  8430   5780   5898      1
  8431   5781   5782      1
  8432   5782   5783      1
  8433   5782   5785      1
  8434   5783   5786      1
  8435   5783   6994      1
  8436   5784   5785      1
  8437   5785   5788      1
  8438   5786   5789      1
  8439   5786   7000      1
  8440   5787   5900      1
  8441   5788   5789      1
  8442   5788   5792      1
  8443   5789   5790      1
  8444   5790   5793      1
  8445   5790   7002      1
  8446   5791   5792      1
  8447   5792   5794      1
  8448   5793   5795      1
  8449   5793   7115      1
  8450   5794   5795      1
  8451   5794   5797      1
  8452   5795   5798      1
  8453   5796   5797      1
  8454   5797   5799      1
  8455   5798   5800      1
  8456   5798   5919      1
  8457   5799   5800      1
  8458   5800   5804      1
  8459   5801   5802      1
  8460   5801   5803      1
  8461   5801   7012      1
  8462   5803   5806      1
  8463   5803   7014      1
  8464   5804   5805      1
  8465   5804   5923      1
  8466   5805   5807      1
  8467   5805   5809      1
  8468   5806   5808      1
  8469   5806   7017      1
  8470   5807   5808      1
  8471   5807   5810      1
  8472   5808   5811      1
  8473   5809   5929      1
  8474   5810   5813      1
  8475   5811   5812      1
  8476   5811   5814      1
  8477   5812   7017      1
  8478   5813   5814      1
  8479   5814   5815      1
  8480   5815   5816      1
  8481   5815   5819      1
  8482   5816   5817      1
  8483   5816   5818      1
  8484   5817   6917      1
  8485   5818   5821      1
  8486   5818   7028      1
  8487   5819   5821      1
  8488   5819   5822      1
  8489   5820   5936      1
  8490   5820   5941      1
  8491   5821   5823      1
  8492   5822   5824      1
  8493   5823   5824      1
  8494   5823   5826      1
  8495   5824   5828      1
  8496   5825   5827      1
  8497   5826   5829      1
  8498   5826   7032      1
  8499   5827   5945      1
  8500   5828   5830      1
  8501   5829   5830      1
  8502   5832   5835      1
  8503   5833   5837      1
  8504   5834   5836      1
  8505   5835   5836      1
  8506   5835   5838      1
  8507   5836   5839      1
  8508   5837   7042      1
  8509   5838   5840      1
  8510   5838   7041      1
  8511   5839   5840      1
  8512   5839   5841      1
  8513   5840   5842      1
  8514   5841   5843      1
  8515   5842   5846      1
  8516   5842   7048      1
  8517   5843   5844      1
  8518   5844   5846      1
  8519   5845   5847      1
  8520   5847   7049      1
  8521   5847   7054      1
  8522   5848   5849      1
  8523   5849   5850      1
  8524   5849   5851      1
  8525   5850   5852      1
  8526   5850   7054      1
  8527   5851   5853      1
  8528   5852   5854      1
  8529   5852   7059      1
  8530   5853   5854      1
  8531   5853   5855      1
  8532   5854   5856      1
  8533   5855   5857      1
  8534   5856   5857      1
  8535   5856   5858      1
  8536   5857   5860      1
  8537   5858   5859      1
  8538   5858   7062      1
  8539   5859   5862      1
  8540   5860   5863      1
  8541   5861   5864      1
  8542   5861   7069      1
  8543   5862   5864      1
  8544   5862   5865      1
  8545   5863   5864      1
  8546   5864   5867      1
  8547   5865   5866      1
  8548   5866   5868      1
  8549   5867   5870      1
  8550   5867   7075      1
  8551   5868   5870      1
  8552   5868   5871      1
  8553   5869   5870      1
  8554   5869   7076      1
  8555   5869   7078      1
  8556   5870   5872      1
  8557   5871   5873      1
  8558   5872   5873      1
  8559   5872   5875      1
  8560   5873   5876      1
  8561   5874   5875      1
  8562   5874   7078      1
  8563   5875   5877      1
  8564   5876   5879      1
  8565   5876   5881      1
  8566   5877   5880      1
  8567   5877   5883      1
  8568   5878   5879      1
  8569   5878   5882      1
  8570   5880   5881      1
  8571   5882   5884      1
  8572   5882   7086      1
  8573   5883   5884      1
  8574   5884   5885      1
  8575   5885   5887      1
  8576   5885   5889      1
  8577   5886   5887      1
  8578   5886   7089      1
  8579   5888   5889      1
  8580   5889   5891      1
  8581   5890   5891      1
  8582   5891   5893      1
  8583   5892   5894      1
  8584   5893   5894      1
  8585   5893   5895      1
  8586   5894   5896      1
  8587   5895   5897      1
  8588   5896   5898      1
  8589   5896   5899      1
  8590   5897   5899      1
  8591   5898   5900      1
  8592   5899   5901      1
  8593   5899   5903      1
  8594   5900   5901      1
  8595   5901   5904      1
  8596   5902   5903      1
  8597   5902   5905      1
  8598   5902   7101      1
  8599   5903   5906      1
  8600   5904   5906      1
  8601   5904   5907      1
  8602   5905   5908      1
  8603   5906   5909      1
  8604   5907   5910      1
  8605   5908   5909      1
  8606   5908   7111      1
  8607   5909   5911      1
  8608   5910   5911      1
  8609   5910   5912      1
  8610   5911   5914      1
  8611   5912   5916      1
  8612   5913   5918      1
  8613   5914   5915      1
  8614   5914   5917      1
  8615   5915   5920      1
  8616   5916   5917      1
  8617   5917   5918      1
  8618   5919   5921      1
  8619   5919   7118      1
  8620   5920   5922      1
  8621   5921   5923      1
  8622   5921   7123      1
  8623   5922   5924      1
  8624   5923   5926      1
  8625   5924   5925      1
  8626   5924   5927      1
  8627   5925   5930      1
  8628   5926   5928      1
  8629   5926   5929      1
  8630   5927   5931      1
  8631   5928   5932      1
  8632   5928   7130      1
  8633   5929   5934      1
  8634   5930   5933      1
  8635   5931   5933      1
  8636   5932   5935      1
  8637   5932   7023      1
  8638   5933   5937      1
  8639   5934   5935      1
  8640   5934   5936      1
  8641   5935   5938      1
  8642   5937   5940      1
  8643   5938   5941      1
  8644   5938   7139      1
  8645   5939   5942      1
  8646   5939   7136      1
  8647   5940   5942      1
  8648   5940   5943      1
  8649   5941   5945      1
  8650   5942   5944      1
  8651   5943   5947      1
  8652   5944   5948      1
  8653   5945   5946      1
  8654   5946   5950      1
  8655   5946   7142      1
  8656   5947   5948      1
  8657   5947   5949      1
  8658   5951   5955      1
  8659   5952   5956      1
  8660   5953   5954      1
  8661   5954   5957      1
  8662   5955   5956      1
  8663   5956   5958      1
  8664   5957   5960      1
  8665   5957   6069      1
  8666   5958   5959      1
  8667   5958   5962      1
  8668   5959   7151      1
  8669   5959   7158      1
  8670   5960   5963      1
  8671   5961   5964      1
  8672   5961   6069      1
  8673   5961   7156      1
  8674   5962   7050      1
  8675   5963   6073      1
  8676   5963   6074      1
  8677   5964   5965      1
  8678   5964   6073      1
  8679   5965   7164      1
  8680   5966   5967      1
  8681   5966   7050      1
  8682   5966   7164      1
  8683   5967   7170      1
  8684   5968   5970      1
  8685   5968   7173      1
  8686   5969   5970      1
  8687   5969   5971      1
  8688   5969   7174      1
  8689   5970   5972      1
  8690   5971   5974      1
  8691   5971   6084      1
  8692   5972   5973      1
  8693   5972   5975      1
  8694   5973   5974      1
  8695   5974   6091      1
  8696   5976   5977      1
  8697   5976   6092      1
  8698   5976   7293      1
  8699   5977   5980      1
  8700   5977   7179      1
  8701   5978   5981      1
  8702   5978   7179      1
  8703   5979   5980      1
  8704   5979   6093      1
  8705   5980   5982      1
  8706   5981   5982      1
  8707   5982   5983      1
  8708   5983   5984      1
  8709   5985   5989      1
  8710   5985   7184      1
  8711   5985   7305      1
  8712   5986   5987      1
  8713   5986   7185      1
  8714   5987   5988      1
  8715   5988   5989      1
  8716   5988   5991      1
  8717   5989   5993      1
  8718   5990   5992      1
  8719   5991   5992      1
  8720   5991   5994      1
  8721   5993   5994      1
  8722   5993   7312      1
  8723   5994   6103      1
  8724   5995   5996      1
  8725   5995   5997      1
  8726   5996   5998      1
  8727   5997   5999      1
  8728   5997   7194      1
  8729   5998   5999      1
  8730   5998   6000      1
  8731   5999   6001      1
  8732   6001   6002      1
  8733   6001   6112      1
  8734   6002   6003      1
  8735   6002   6118      1
  8736   6003   6006      1
  8737   6004   6005      1
  8738   6004   6007      1
  8739   6005   6009      1
  8740   6005   7203      1
  8741   6006   6007      1
  8742   6008   6120      1
  8743   6008   7205      1
  8744   6008   7209      1
  8745   6009   7210      1
  8746   6010   7099      1
  8747   6010   7101      1
  8748   6011   6012      1
  8749   6011   6013      1
  8750   6012   6014      1
  8751   6013   6015      1
  8752   6013   6129      1
  8753   6014   6015      1
  8754   6014   6017      1
  8755   6015   6016      1
  8756   6016   7216      1
  8757   6016   7217      1
  8758   6017   6018      1
  8759   6018   6021      1
  8760   6019   6020      1
  8761   6019   6135      1
  8762   6020   6022      1
  8763   6021   6022      1
  8764   6021   6024      1
  8765   6021   6026      1
  8766   6022   6023      1
  8767   6023   6025      1
  8768   6023   6138      1
  8769   6024   6025      1
  8770   6024   7225      1
  8771   6025   7227      1
  8772   6026   6027      1
  8773   6027   6029      1
  8774   6028   6029      1
  8775   6028   6031      1
  8776   6028   7235      1
  8777   6029   6034      1
  8778   6030   6031      1
  8779   6030   6032      1
  8780   6030   6144      1
  8781   6031   6033      1
  8782   6032   6034      1
  8783   6033   6148      1
  8784   6033   7236      1
  8785   6034   6035      1
  8786   6036   7132      1
  8787   6037   6040      1
  8788   6037   6041      1
  8789   6037   6042      1
  8790   6038   6042      1
  8791   6039   6043      1
  8792   6040   6041      1
  8793   6040   6043      1
  8794   6041   6044      1
  8795   6042   6045      1
  8796   6043   6046      1
  8797   6044   6047      1
  8798   6044   7249      1
  8799   6045   6047      1
  8800   6045   6050      1
  8801   6046   6048      1
  8802   6046   6049      1
  8803   6047   6051      1
  8804   6048   6052      1
  8805   6049   6053      1
  8806   6049   7250      1
  8807   6050   6054      1
  8808   6051   6055      1
  8809   6051   7254      1
  8810   6052   6056      1
  8811   6053   6058      1
  8812   6053   7256      1
  8813   6054   6055      1
  8814   6054   6057      1
  8815   6055   6059      1
  8816   6056   6058      1
  8817   6060   7256      1
  8818   6061   6162      1
  8819   6062   6063      1
  8820   6063   6065      1
  8821   6063   7263      1
  8822   6064   6068      1
  8823   6065   6069      1
  8824   6065   6070      1
  8825   6066   6067      1
  8826   6066   6068      1
  8827   6066   6163      1
  8828   6067   6070      1
  8829   6067   6166      1
  8830   6068   6071      1
  8831   6070   7267      1
  8832   6071   6072      1
  8833   6072   6075      1
  8834   6073   6076      1
  8835   6074   6075      1
  8836   6075   6076      1
  8837   6076   6077      1
  8838   6077   6079      1
  8839   6077   7274      1
  8840   6078   6080      1
  8841   6078   6174      1
  8842   6079   6081      1
  8843   6079   7281      1
  8844   6080   6082      1
  8845   6080   6181      1
  8846   6081   6083      1
  8847   6081   6084      1
  8848   6082   6083      1
  8849   6082   6085      1
  8850   6083   6087      1
  8851   6084   7284      1
  8852   6085   6088      1
  8853   6086   6087      1
  8854   6086   7285      1
  8855   6086   7404      1
  8856   6087   6089      1
  8857   6088   6090      1
  8858   6089   6090      1
  8859   6089   6184      1
  8860   6090   6094      1
  8861   6091   6092      1
  8862   6091   6093      1
  8863   6092   6095      1
  8864   6094   6096      1
  8865   6094   6188      1
  8866   6095   6096      1
  8867   6095   6097      1
  8868   6096   6098      1
  8869   6097   6099      1
  8870   6097   7298      1
  8871   6098   6099      1
  8872   6098   6194      1
  8873   6099   7419      1
  8874   6100   6101      1
  8875   6100   6102      1
  8876   6100   6202      1
  8877   6101   6104      1
  8878   6101   6205      1
  8879   6102   6107      1
  8880   6102   7310      1
  8881   6103   6105      1
  8882   6104   6106      1
  8883   6105   6106      1
  8884   6105   6108      1
  8885   6106   6110      1
  8886   6107   6110      1
  8887   6107   6111      1
  8888   6108   6109      1
  8889   6108   6112      1
  8890   6109   6111      1
  8891   6109   7317      1
  8892   6110   6113      1
  8893   6111   7318      1
  8894   6112   6114      1
  8895   6113   6115      1
  8896   6113   6116      1
  8897   6114   6115      1
  8898   6114   6118      1
  8899   6115   6119      1
  8900   6116   6213      1
  8901   6116   6215      1
  8902   6117   6215      1
  8903   6117   7318      1
  8904   6117   7323      1
  8905   6120   6122      1
  8906   6120   7332      1
  8907   6121   6124      1
  8908   6121   6223      1
  8909   6121   7331      1
  8910   6122   6123      1
  8911   6122   6124      1
  8912   6124   6125      1
  8913   6125   6126      1
  8914   6126   6128      1
  8915   6126   6229      1
  8916   6127   6128      1
  8917   6127   6129      1
  8918   6128   6131      1
  8919   6129   6130      1
  8920   6130   6131      1
  8921   6130   7343      1
  8922   6131   6132      1
  8923   6132   6235      1
  8924   6132   7342      1
  8925   6133   6134      1
  8926   6133   6238      1
  8927   6134   6135      1
  8928   6134   6137      1
  8929   6135   6138      1
  8930   6136   6137      1
  8931   6136   6140      1
  8932   6136   6239      1
  8933   6137   6139      1
  8934   6138   6139      1
  8935   6139   7351      1
  8936   6140   7354      1
  8937   6140   7460      1
  8938   6141   6142      1
  8939   6141   6143      1
  8940   6142   6145      1
  8941   6142   6243      1
  8942   6143   6144      1
  8943   6144   6146      1
  8944   6145   6147      1
  8945   6145   6248      1
  8946   6146   6147      1
  8947   6146   6148      1
  8948   6147   6151      1
  8949   6148   6150      1
  8950   6149   6249      1
  8951   6149   7470      1
  8952   6150   6153      1
  8953   6150   7362      1
  8954   6151   6152      1
  8955   6151   6153      1
  8956   6152   6154      1
  8957   6153   6155      1
  8958   6154   6156      1
  8959   6155   6157      1
  8960   6155   7365      1
  8961   6156   6158      1
  8962   6157   6158      1
  8963   6157   6159      1
  8964   6158   6160      1
  8965   6159   6262      1
  8966   6159   7369      1
  8967   6160   6162      1
  8968   6160   6261      1
  8969   6161   6162      1
  8970   6163   6164      1
  8971   6164   6166      1
  8972   6164   6167      1
  8973   6165   6167      1
  8974   6165   6168      1
  8975   6166   7378      1
  8976   6167   6169      1
  8977   6168   6272      1
  8978   6169   6170      1
  8979   6169   6272      1
  8980   6170   6171      1
  8981   6170   6276      1
  8982   6170   7383      1
  8983   6171   6173      1
  8984   6171   7387      1
  8985   6172   6174      1
  8986   6172   7272      1
  8987   6172   7387      1
  8988   6173   6174      1
  8989   6173   6175      1
  8990   6175   6176      1
  8991   6175   6177      1
  8992   6176   6179      1
  8993   6177   6178      1
  8994   6177   6180      1
  8995   6178   6283      1
  8996   6178   7395      1
  8997   6179   6180      1
  8998   6179   6181      1
  8999   6180   6182      1
  9000   6182   6183      1
  9001   6183   7403      1
  9002   6184   6186      1
  9003   6184   7404      1
  9004   6185   6187      1
  9005   6185   6189      1
  9006   6185   7405      1
  9007   6186   6187      1
  9008   6186   6188      1
  9009   6187   6191      1
  9010   6188   6192      1
  9011   6189   6299      1
  9012   6189   7414      1
  9013   6190   6191      1
  9014   6190   6297      1
  9015   6191   6193      1
  9016   6192   6193      1
  9017   6192   6194      1
  9018   6193   6196      1
  9019   6194   6198      1
  9020   6195   6196      1
  9021   6195   6197      1
  9022   6195   6307      1
  9023   6196   6199      1
  9024   6197   6200      1
  9025   6197   6310      1
  9026   6198   6201      1
  9027   6198   6202      1
  9028   6199   6201      1
  9029   6199   6204      1
  9030   6200   7422      1
  9031   6201   6205      1
  9032   6202   6203      1
  9033   6203   7422      1
  9034   6203   7425      1
  9035   6204   6206      1
  9036   6204   6314      1
  9037   6205   6207      1
  9038   6206   6207      1
  9039   6206   6208      1
  9040   6208   6321      1
  9041   6209   6210      1
  9042   6209   6211      1
  9043   6209   6323      1
  9044   6210   6212      1
  9045   6211   6214      1
  9046   6211   6329      1
  9047   6212   6214      1
  9048   6214   6218      1
  9049   6215   6217      1
  9050   6216   6217      1
  9051   6216   6220      1
  9052   6216   7439      1
  9053   6217   6223      1
  9054   6218   6220      1
  9055   6218   6222      1
  9056   6219   6222      1
  9057   6220   6221      1
  9058   6221   6337      1
  9059   6221   7545      1
  9060   6222   6224      1
  9061   6223   6225      1
  9062   6224   6226      1
  9063   6225   6227      1
  9064   6225   7446      1
  9065   6226   6230      1
  9066   6226   6342      1
  9067   6227   6229      1
  9068   6227   6230      1
  9069   6228   6342      1
  9070   6228   7448      1
  9071   6228   7555      1
  9072   6229   6231      1
  9073   6230   6233      1
  9074   6232   6350      1
  9075   6233   6234      1
  9076   6233   6236      1
  9077   6234   6235      1
  9078   6234   7452      1
  9079   6235   6239      1
  9080   6236   6237      1
  9081   6236   6240      1
  9082   6237   6350      1
  9083   6237   6354      1
  9084   6238   6239      1
  9085   6240   6241      1
  9086   6240   7457      1
  9087   6241   6354      1
  9088   6241   7563      1
  9089   6242   6244      1
  9090   6242   6245      1
  9091   6243   6244      1
  9092   6244   6246      1
  9093   6245   6247      1
  9094   6245   6361      1
  9095   6246   6247      1
  9096   6246   6248      1
  9097   6247   6250      1
  9098   6248   6249      1
  9099   6249   6251      1
  9100   6250   6251      1
  9101   6251   6252      1
  9102   6252   6254      1
  9103   6252   7470      1
  9104   6253   6256      1
  9105   6254   6255      1
  9106   6254   7474      1
  9107   6255   6256      1
  9108   6255   6372      1
  9109   6256   6257      1
  9110   6257   6258      1
  9111   6258   6259      1
  9112   6258   6260      1
  9113   6259   6261      1
  9114   6259   6263      1
  9115   6260   6264      1
  9116   6260   6265      1
  9117   6261   6262      1
  9118   6262   7481      1
  9119   6263   6264      1
  9120   6263   7482      1
  9121   6264   6382      1
  9122   6265   6383      1
  9123   6266   6269      1
  9124   6266   7376      1
  9125   6267   6390      1
  9126   6268   6269      1
  9127   6268   6270      1
  9128   6268   6386      1
  9129   6269   7487      1
  9130   6270   6387      1
  9131   6270   7489      1
  9132   6271   6273      1
  9133   6271   6390      1
  9134   6271   6392      1
  9135   6272   6274      1
  9136   6273   6275      1
  9137   6274   6275      1
  9138   6274   6277      1
  9139   6275   6278      1
  9140   6276   6277      1
  9141   6276   7496      1
  9142   6277   6279      1
  9143   6278   6279      1
  9144   6278   6280      1
  9145   6279   6281      1
  9146   6280   6282      1
  9147   6280   6400      1
  9148   6281   6284      1
  9149   6281   7501      1
  9150   6282   6284      1
  9151   6282   6404      1
  9152   6283   6285      1
  9153   6283   7501      1
  9154   6284   6287      1
  9155   6285   6286      1
  9156   6287   6288      1
  9157   6287   6290      1
  9158   6288   6292      1
  9159   6288   7507      1
  9160   6289   6290      1
  9161   6289   6408      1
  9162   6290   6291      1
  9163   6291   6293      1
  9164   6291   6294      1
  9165   6292   6293      1
  9166   6292   7513      1
  9167   6293   6295      1
  9168   6294   6296      1
  9169   6295   6296      1
  9170   6295   6299      1
  9171   6296   6297      1
  9172   6298   6303      1
  9173   6298   6415      1
  9174   6298   7626      1
  9175   6299   6302      1
  9176   6300   6301      1
  9177   6300   6418      1
  9178   6301   6303      1
  9179   6301   6304      1
  9180   6302   6303      1
  9181   6302   7520      1
  9182   6303   6306      1
  9183   6304   6305      1
  9184   6304   6307      1
  9185   6306   6308      1
  9186   6306   7633      1
  9187   6307   6309      1
  9188   6308   6309      1
  9189   6308   6311      1
  9190   6309   6313      1
  9191   6310   7522      1
  9192   6310   7526      1
  9193   6311   6316      1
  9194   6311   6427      1
  9195   6312   6315      1
  9196   6312   6429      1
  9197   6313   6314      1
  9198   6313   6315      1
  9199   6315   6317      1
  9200   6316   6317      1
  9201   6316   6434      1
  9202   6317   6318      1
  9203   6318   6319      1
  9204   6318   6320      1
  9205   6319   6322      1
  9206   6319   7532      1
  9207   6320   6321      1
  9208   6320   6323      1
  9209   6322   6326      1
  9210   6322   6434      1
  9211   6323   6325      1
  9212   6324   6327      1
  9213   6325   6329      1
  9214   6325   7534      1
  9215   6326   6328      1
  9216   6326   6442      1
  9217   6327   6330      1
  9218   6327   6443      1
  9219   6328   6331      1
  9220   6328   7538      1
  9221   6329   7433      1
  9222   6330   6331      1
  9223   6330   6332      1
  9224   6331   6333      1
  9225   6332   6334      1
  9226   6333   6335      1
  9227   6333   7539      1
  9228   6334   6335      1
  9229   6334   6336      1
  9230   6335   6337      1
  9231   6336   6339      1
  9232   6337   6338      1
  9233   6338   6339      1
  9234   6338   6342      1
  9235   6339   6340      1
  9236   6339   6343      1
  9237   6340   6341      1
  9238   6341   6344      1
  9239   6341   6455      1
  9240   6343   6345      1
  9241   6344   6461      1
  9242   6344   7556      1
  9243   6345   6347      1
  9244   6345   6348      1
  9245   6346   6349      1
  9246   6346   7555      1
  9247   6346   7556      1
  9248   6347   6349      1
  9249   6347   6350      1
  9250   6348   6353      1
  9251   6349   6352      1
  9252   6351   6352      1
  9253   6351   6461      1
  9254   6351   6468      1
  9255   6352   6355      1
  9256   6353   6466      1
  9257   6354   6355      1
  9258   6355   6357      1
  9259   6356   6357      1
  9260   6356   6468      1
  9261   6356   7566      1
  9262   6357   6360      1
  9263   6358   6361      1
  9264   6359   6360      1
  9265   6359   7563      1
  9266   6359   7570      1
  9267   6360   6363      1
  9268   6361   6362      1
  9269   6362   6363      1
  9270   6362   6366      1
  9271   6363   6364      1
  9272   6363   6365      1
  9273   6364   7570      1
  9274   6364   7572      1
  9275   6365   6370      1
  9276   6365   6480      1
  9277   6366   6367      1
  9278   6366   6369      1
  9279   6367   6368      1
  9280   6368   6482      1
  9281   6369   6371      1
  9282   6370   6491      1
  9283   6370   7574      1
  9284   6371   6372      1
  9285   6372   6375      1
  9286   6373   6374      1
  9287   6373   6378      1
  9288   6373   6491      1
  9289   6374   6379      1
  9290   6374   6493      1
  9291   6375   6376      1
  9292   6375   6377      1
  9293   6376   6380      1
  9294   6376   7581      1
  9295   6377   6379      1
  9296   6378   6380      1
  9297   6378   6498      1
  9298   6379   6381      1
  9299   6380   7586      1
  9300   6381   6501      1
  9301   6384   6505      1
  9302   6385   6386      1
  9303   6387   6389      1
  9304   6388   6389      1
  9305   6388   6391      1
  9306   6389   7596      1
  9307   6391   6395      1
  9308   6391   6513      1
  9309   6391   7595      1
  9310   6392   6393      1
  9311   6392   6394      1
  9312   6393   6396      1
  9313   6394   6395      1
  9314   6394   7602      1
  9315   6395   6398      1
  9316   6395   7604      1
  9317   6396   6397      1
  9318   6396   6398      1
  9319   6397   6519      1
  9320   6398   6399      1
  9321   6398   6517      1
  9322   6399   6401      1
  9323   6399   7607      1
  9324   6400   6402      1
  9325   6401   6403      1
  9326   6402   6404      1
  9327   6403   6404      1
  9328   6403   6405      1
  9329   6404   6407      1
  9330   6405   6406      1
  9331   6405   6530      1
  9332   6406   6409      1
  9333   6406   7716      1
  9334   6407   6408      1
  9335   6407   6410      1
  9336   6409   6411      1
  9337   6409   7618      1
  9338   6410   6411      1
  9339   6410   6412      1
  9340   6411   6414      1
  9341   6412   6413      1
  9342   6412   6416      1
  9343   6414   6415      1
  9344   6414   7624      1
  9345   6415   6416      1
  9346   6416   6418      1
  9347   6417   6418      1
  9348   6418   6421      1
  9349   6419   6420      1
  9350   6419   6422      1
  9351   6419   6544      1
  9352   6420   6421      1
  9353   6420   6423      1
  9354   6421   6424      1
  9355   6422   6546      1
  9356   6423   6426      1
  9357   6423   7635      1
  9358   6424   6425      1
  9359   6424   6426      1
  9360   6425   6429      1
  9361   6426   6428      1
  9362   6427   7633      1
  9363   6427   7639      1
  9364   6428   6430      1
  9365   6428   6552      1
  9366   6430   6431      1
  9367   6430   6559      1
  9368   6431   6432      1
  9369   6431   6433      1
  9370   6432   6435      1
  9371   6432   6436      1
  9372   6433   6437      1
  9373   6434   6436      1
  9374   6434   7646      1
  9375   6435   6438      1
  9376   6435   6559      1
  9377   6436   6437      1
  9378   6436   6439      1
  9379   6437   6440      1
  9380   6438   6441      1
  9381   6438   6564      1
  9382   6439   6441      1
  9383   6439   6442      1
  9384   6440   6443      1
  9385   6441   6444      1
  9386   6442   6445      1
  9387   6443   6447      1
  9388   6444   6445      1
  9389   6444   6446      1
  9390   6445   6448      1
  9391   6446   6567      1
  9392   6446   6570      1
  9393   6447   6449      1
  9394   6447   6450      1
  9395   6448   6450      1
  9396   6448   7658      1
  9397   6449   6451      1
  9398   6450   6452      1
  9399   6451   6452      1
  9400   6451   6453      1
  9401   6452   6454      1
  9402   6453   6456      1
  9403   6454   6455      1
  9404   6454   6457      1
  9405   6455   7661      1
  9406   6456   6457      1
  9407   6456   6578      1
  9408   6457   6459      1
  9409   6458   6459      1
  9410   6458   6577      1
  9411   6458   7665      1
  9412   6459   6460      1
  9413   6460   6462      1
  9414   6460   6464      1
  9415   6461   6462      1
  9416   6462   6465      1
  9417   6463   6464      1
  9418   6463   7665      1
  9419   6463   7667      1
  9420   6464   6467      1
  9421   6465   6466      1
  9422   6465   6469      1
  9423   6466   6472      1
  9424   6467   6469      1
  9425   6467   6471      1
  9426   6468   7669      1
  9427   6469   6470      1
  9428   6469   6473      1
  9429   6470   6475      1
  9430   6471   6474      1
  9431   6471   6586      1
  9432   6472   6473      1
  9433   6473   6477      1
  9434   6474   6476      1
  9435   6474   7673      1
  9436   6475   6593      1
  9437   6476   6477      1
  9438   6476   6478      1
  9439   6477   6479      1
  9440   6478   6480      1
  9441   6478   7675      1
  9442   6479   6480      1
  9443   6479   6482      1
  9444   6481   6483      1
  9445   6481   6484      1
  9446   6481   6593      1
  9447   6483   6485      1
  9448   6483   6596      1
  9449   6484   6488      1
  9450   6485   6486      1
  9451   6485   6487      1
  9452   6486   6489      1
  9453   6486   6490      1
  9454   6487   6494      1
  9455   6487   6598      1
  9456   6488   6489      1
  9457   6488   6602      1
  9458   6489   6492      1
  9459   6490   6491      1
  9460   6490   6493      1
  9461   6492   6493      1
  9462   6494   6495      1
  9463   6494   7799      1
  9464   6495   6497      1
  9465   6495   6607      1
  9466   6496   6497      1
  9467   6496   6498      1
  9468   6496   7688      1
  9469   6497   6500      1
  9470   6498   7588      1
  9471   6499   6501      1
  9472   6499   6502      1
  9473   6500   6609      1
  9474   6500   7805      1
  9475   6501   6503      1
  9476   6502   6504      1
  9477   6503   6505      1
  9478   6503   6506      1
  9479   6504   6506      1
  9480   6504   6508      1
  9481   6507   6611      1
  9482   6509   6511      1
  9483   6510   6512      1
  9484   6510   6513      1
  9485   6511   6618      1
  9486   6511   7701      1
  9487   6512   6514      1
  9488   6513   6515      1
  9489   6514   6515      1
  9490   6514   6516      1
  9491   6515   6517      1
  9492   6516   6518      1
  9493   6517   6522      1
  9494   6518   6520      1
  9495   6518   6625      1
  9496   6519   6523      1
  9497   6520   6521      1
  9498   6520   6524      1
  9499   6521   6525      1
  9500   6521   6627      1
  9501   6522   6523      1
  9502   6522   6524      1
  9503   6523   6526      1
  9504   6524   6527      1
  9505   6525   6528      1
  9506   6525   7709      1
  9507   6526   6530      1
  9508   6527   6528      1
  9509   6527   7715      1
  9510   6528   6529      1
  9511   6529   6532      1
  9512   6529   6632      1
  9513   6530   6531      1
  9514   6531   6535      1
  9515   6532   6533      1
  9516   6532   6536      1
  9517   6533   6537      1
  9518   6533   7717      1
  9519   6534   6536      1
  9520   6535   6537      1
  9521   6535   6538      1
  9522   6536   6641      1
  9523   6537   6539      1
  9524   6538   6540      1
  9525   6539   6541      1
  9526   6539   7722      1
  9527   6540   6541      1
  9528   6540   6542      1
  9529   6541   6543      1
  9530   6543   6544      1
  9531   6543   7726      1
  9532   6544   6550      1
  9533   6545   6548      1
  9534   6545   6549      1
  9535   6545   6650      1
  9536   6546   6551      1
  9537   6547   6549      1
  9538   6547   6656      1
  9539   6547   7728      1
  9540   6548   6551      1
  9541   6549   6550      1
  9542   6550   6552      1
  9543   6551   6552      1
  9544   6552   6553      1
  9545   6553   6554      1
  9546   6553   6558      1
  9547   6554   6555      1
  9548   6554   6556      1
  9549   6556   6557      1
  9550   6556   6662      1
  9551   6557   6560      1
  9552   6557   6657      1
  9553   6558   6559      1
  9554   6558   6561      1
  9555   6559   6562      1
  9556   6560   6561      1
  9557   6560   7861      1
  9558   6561   7741      1
  9559   6562   6563      1
  9560   6563   6564      1
  9561   6564   6565      1
  9562   6565   6566      1
  9563   6565   6567      1
  9564   6566   6569      1
  9565   6567   6570      1
  9566   6568   6571      1
  9567   6568   6672      1
  9568   6568   7752      1
  9569   6569   6572      1
  9570   6571   6572      1
  9571   6571   6573      1
  9572   6572   6574      1
  9573   6573   6575      1
  9574   6573   7757      1
  9575   6574   6575      1
  9576   6575   6576      1
  9577   6576   6577      1
  9578   6576   6579      1
  9579   6577   7764      1
  9580   6578   6579      1
  9581   6579   6581      1
  9582   6580   6581      1
  9583   6580   6681      1
  9584   6580   6683      1
  9585   6581   6582      1
  9586   6583   6584      1
  9587   6583   6585      1
  9588   6583   7775      1
  9589   6584   6587      1
  9590   6584   7889      1
  9591   6585   6586      1
  9592   6585   6588      1
  9593   6586   7667      1
  9594   6587   6589      1
  9595   6587   6694      1
  9596   6588   6589      1
  9597   6588   6590      1
  9598   6589   6591      1
  9599   6590   6592      1
  9600   6591   6594      1
  9601   6591   6698      1
  9602   6592   6593      1
  9603   6592   6595      1
  9604   6594   6595      1
  9605   6594   6597      1
  9606   6595   6596      1
  9607   6596   6598      1
  9608   6597   6704      1
  9609   6597   7790      1
  9610   6598   7793      1
  9611   6599   6600      1
  9612   6599   6602      1
  9613   6600   6601      1
  9614   6600   6706      1
  9615   6601   6603      1
  9616   6601   6710      1
  9617   6602   6604      1
  9618   6603   6604      1
  9619   6603   6605      1
  9620   6604   6606      1
  9621   6605   6608      1
  9622   6605   6716      1
  9623   6606   6607      1
  9624   6606   6608      1
  9625   6607   6609      1
  9626   6608   6610      1
  9627   6609   6611      1
  9628   6610   6611      1
  9629   6610   6612      1
  9630   6612   6721      1
  9631   6613   6614      1
  9632   6613   6616      1
  9633   6614   6619      1
  9634   6615   6616      1
  9635   6615   6618      1
  9636   6616   7816      1
  9637   6617   6619      1
  9638   6618   6620      1
  9639   6619   6621      1
  9640   6620   6621      1
  9641   6620   6622      1
  9642   6621   6623      1
  9643   6622   7704      1
  9644   6622   7823      1
  9645   6623   6624      1
  9646   6623   6626      1
  9647   6624   6730      1
  9648   6624   6733      1
  9649   6625   6627      1
  9650   6626   6627      1
  9651   6626   6628      1
  9652   6628   6630      1
  9653   6628   7827      1
  9654   6629   6630      1
  9655   6629   6631      1
  9656   6630   6740      1
  9657   6631   6633      1
  9658   6632   6634      1
  9659   6632   6635      1
  9660   6633   6635      1
  9661   6634   7829      1
  9662   6634   7833      1
  9663   6635   6636      1
  9664   6636   6638      1
  9665   6636   6639      1
  9666   6637   6638      1
  9667   6637   6745      1
  9668   6637   7837      1
  9669   6638   6640      1
  9670   6639   6642      1
  9671   6640   6643      1
  9672   6640   7842      1
  9673   6641   6643      1
  9674   6641   6644      1
  9675   6642   6754      1
  9676   6643   6645      1
  9677   6644   6646      1
  9678   6645   7847      1
  9679   6646   6647      1
  9680   6646   6650      1
  9681   6647   6651      1
  9682   6648   6651      1
  9683   6648   6757      1
  9684   6649   6652      1
  9685   6649   6759      1
  9686   6649   7849      1
  9687   6650   6655      1
  9688   6651   6653      1
  9689   6652   6653      1
  9690   6652   6654      1
  9691   6653   6655      1
  9692   6654   6656      1
  9693   6654   7851      1
  9694   6655   6656      1
  9695   6656   6657      1
  9696   6657   7855      1
  9697   6658   6660      1
  9698   6658   6767      1
  9699   6658   6770      1
  9700   6659   6660      1
  9701   6660   6663      1
  9702   6661   6664      1
  9703   6661   6770      1
  9704   6661   7959      1
  9705   6663   6664      1
  9706   6663   6666      1
  9707   6664   7864      1
  9708   6665   6666      1
  9709   6666   6668      1
  9710   6667   6669      1
  9711   6667   7744      1
  9712   6667   7861      1
  9713   6668   6669      1
  9714   6668   6671      1
  9715   6669   6672      1
  9716   6670   6779      1
  9717   6670   7864      1
  9718   6670   7870      1
  9719   6671   6673      1
  9720   6673   6674      1
  9721   6673   6781      1
  9722   6675   6676      1
  9723   6675   6784      1
  9724   6675   7876      1
  9725   6676   6678      1
  9726   6676   6790      1
  9727   6677   6679      1
  9728   6678   6679      1
  9729   6678   6680      1
  9730   6679   6681      1
  9731   6680   6682      1
  9732   6680   7880      1
  9733   6682   6683      1
  9734   6682   7767      1
  9735   6683   6684      1
  9736   6684   6686      1
  9737   6684   6687      1
  9738   6685   6688      1
  9739   6686   6691      1
  9740   6687   6689      1
  9741   6687   6690      1
  9742   6688   6689      1
  9743   6688   6802      1
  9744   6688   6808      1
  9745   6689   6692      1
  9746   6690   6693      1
  9747   6690   6694      1
  9748   6690   7891      1
  9749   6691   6692      1
  9750   6693   6695      1
  9751   6693   6806      1
  9752   6694   6696      1
  9753   6695   6696      1
  9754   6695   7896      1
  9755   6696   6698      1
  9756   6697   6699      1
  9757   6697   6810      1
  9758   6698   6700      1
  9759   6699   6703      1
  9760   6699   6815      1
  9761   6700   6701      1
  9762   6700   6704      1
  9763   6701   6702      1
  9764   6701   6705      1
  9765   6702   7901      1
  9766   6702   8004      1
  9767   6703   6705      1
  9768   6704   7899      1
  9769   6705   6707      1
  9770   6706   6708      1
  9771   6707   6708      1
  9772   6707   6710      1
  9773   6707   6711      1
  9774   6709   6711      1
  9775   6709   7901      1
  9776   6709   7908      1
  9777   6710   6712      1
  9778   6711   6713      1
  9779   6711   6820      1
  9780   6712   6716      1
  9781   6712   7909      1
  9782   6713   6715      1
  9783   6713   6824      1
  9784   6714   6715      1
  9785   6715   6717      1
  9786   6716   6718      1
  9787   6717   6718      1
  9788   6717   6720      1
  9789   6718   6721      1
  9790   6719   6720      1
  9791   6719   6826      1
  9792   6720   6723      1
  9793   6721   6722      1
  9794   6722   7915      1
  9795   6724   6725      1
  9796   6724   6727      1
  9797   6725   6728      1
  9798   6726   6729      1
  9799   6727   6838      1
  9800   6727   7920      1
  9801   6728   6730      1
  9802   6728   7921      1
  9803   6729   6730      1
  9804   6729   6731      1
  9805   6731   6732      1
  9806   6732   6735      1
  9807   6732   6841      1
  9808   6734   6736      1
  9809   6734   7928      1
  9810   6735   6737      1
  9811   6736   6737      1
  9812   6736   6738      1
  9813   6737   6739      1
  9814   6738   6742      1
  9815   6738   6743      1
  9816   6738   7933      1
  9817   6739   6741      1
  9818   6739   6744      1
  9819   6740   6741      1
  9820   6740   6742      1
  9821   6741   6746      1
  9822   6742   6745      1
  9823   6743   6744      1
  9824   6743   6747      1
  9825   6744   6748      1
  9826   6745   7937      1
  9827   6747   6749      1
  9828   6747   7940      1
  9829   6748   6749      1
  9830   6748   6855      1
  9831   6749   6750      1
  9832   6750   6752      1
  9833   6750   6753      1
  9834   6751   6752      1
  9835   6752   6756      1
  9836   6753   6755      1
  9837   6753   7945      1
  9838   6754   6757      1
  9839   6755   6758      1
  9840   6755   7946      1
  9841   6756   6758      1
  9842   6756   6760      1
  9843   6757   6759      1
  9844   6758   6759      1
  9845   6760   6761      1
  9846   6761   6762      1
  9847   6761   6763      1
  9848   6762   6764      1
  9849   6762   6865      1
  9850   6763   6765      1
  9851   6764   6766      1
  9852   6764   7954      1
  9853   6765   6766      1
  9854   6765   6767      1
  9855   6766   6768      1
  9856   6768   6770      1
  9857   6768   7957      1
  9858   6769   6771      1
  9859   6771   6773      1
  9860   6771   6869      1
  9861   6772   6774      1
  9862   6772   6869      1
  9863   6772   7961      1
  9864   6773   6774      1
  9865   6773   6775      1
  9866   6774   6776      1
  9867   6775   6778      1
  9868   6776   6777      1
  9869   6776   7965      1
  9870   6777   6778      1
  9871   6777   6779      1
  9872   6778   6780      1
  9873   6779   6781      1
  9874   6780   6782      1
  9875   6781   6782      1
  9876   6782   6783      1
  9877   6784   6785      1
  9878   6784   7975      1
  9879   6785   6786      1
  9880   6785   7980      1
  9881   6786   6788      1
  9882   6786   6790      1
  9883   6787   6788      1
  9884   6787   6789      1
  9885   6787   6887      1
  9886   6788   6791      1
  9887   6789   6795      1
  9888   6789   7981      1
  9889   6790   6792      1
  9890   6791   6792      1
  9891   6791   6794      1
  9892   6793   6794      1
  9893   6793   6887      1
  9894   6795   6796      1
  9895   6795   8097      1
  9896   6796   6799      1
  9897   6796   6890      1
  9898   6797   6800      1
  9899   6798   6799      1
  9900   6798   6800      1
  9901   6798   6801      1
  9902   6799   6803      1
  9903   6800   6802      1
  9904   6801   6804      1
  9905   6801   7992      1
  9906   6802   6804      1
  9907   6803   6805      1
  9908   6803   6894      1
  9909   6804   6806      1
  9910   6805   6807      1
  9911   6806   7998      1
  9912   6807   6808      1
  9913   6807   6809      1
  9914   6808   6810      1
  9915   6809   6811      1
  9916   6809   6812      1
  9917   6810   6812      1
  9918   6811   6900      1
  9919   6812   6813      1
  9920   6813   6814      1
  9921   6813   6815      1
  9922   6814   6816      1
  9923   6815   6817      1
  9924   6816   6817      1
  9925   6816   6818      1
  9926   6817   6820      1
  9927   6818   6819      1
  9928   6818   6821      1
  9929   6819   6913      1
  9930   6820   6822      1
  9931   6821   6822      1
  9932   6821   6823      1
  9933   6822   6824      1
  9934   6823   6825      1
  9935   6823   6913      1
  9936   6824   6826      1
  9937   6825   6827      1
  9938   6825   6828      1
  9939   6826   6827      1
  9940   6827   6829      1
  9941   6828   6830      1
  9942   6828   6923      1
  9943   6829   6830      1
  9944   6830   6929      1
  9945   6831   6832      1
  9946   6831   6833      1
  9947   6831   8023      1
  9948   6832   8026      1
  9949   6834   6835      1
  9950   6834   6838      1
  9951   6835   6836      1
  9952   6836   6837      1
  9953   6837   6839      1
  9954   6837   6933      1
  9955   6838   6840      1
  9956   6839   6840      1
  9957   6839   8035      1
  9958   6840   6843      1
  9959   6841   6842      1
  9960   6842   6844      1
  9961   6842   6845      1
  9962   6843   6844      1
  9963   6843   8039      1
  9964   6844   6846      1
  9965   6845   6847      1
  9966   6846   6847      1
  9967   6846   6848      1
  9968   6847   6849      1
  9969   6848   6850      1
  9970   6848   8040      1
  9971   6849   6851      1
  9972   6850   6851      1
  9973   6850   8046      1
  9974   6851   6854      1
  9975   6852   6853      1
  9976   6852   8046      1
  9977   6852   8163      1
  9978   6853   6854      1
  9979   6853   6957      1
  9980   6854   6856      1
  9981   6855   6857      1
  9982   6856   6857      1
  9983   6856   6858      1
  9984   6857   6859      1
  9985   6858   6860      1
  9986   6858   6960      1
  9987   6859   6860      1
  9988   6860   6861      1
  9989   6861   6862      1
  9990   6862   6863      1
  9991   6863   6864      1
  9992   6863   6865      1
  9993   6864   6866      1
  9994   6864   8060      1
  9995   6866   6971      1
  9996   6867   6871      1
  9997   6867   6971      1
  9998   6867   6976      1
  9999   6868   6869      1
 10000   6868   6870      1
 10001   6868   6871      1
 10002   6870   8070      1
 10003   6870   8075      1
 10004   6871   6872      1
 10005   6872   6875      1
 10006   6873   6874      1
 10007   6873   6977      1
 10008   6873   8075      1
 10009   6874   6876      1
 10010   6874   6980      1
 10011   6875   6876      1
 10012   6875   6877      1
 10013   6877   6878      1
 10014   6878   6879      1
 10015   6879   6880      1
 10016   6880   6881      1
 10017   6880   6882      1
 10018   6881   6884      1
 10019   6881   6990      1
 10020   6882   6883      1
 10021   6882   6885      1
 10022   6883   6888      1
 10023   6883   8088      1
 10024   6884   6886      1
 10025   6885   6886      1
 10026   6885   6887      1
 10027   6888   6996      1
 10028   6888   8092      1
 10029   6889   6891      1
 10030   6889   7001      1
 10031   6889   8096      1
 10032   6890   6891      1
 10033   6890   6894      1
 10034   6891   6892      1
 10035   6892   8102      1
 10036   6892   8105      1
 10037   6893   6895      1
 10038   6893   7003      1
 10039   6894   6896      1
 10040   6895   6896      1
 10041   6896   6897      1
 10042   6897   6900      1
 10043   6898   6899      1
 10044   6898   8105      1
 10045   6898   8109      1
 10046   6899   6901      1
 10047   6900   6901      1
 10048   6901   6902      1
 10049   6902   6903      1
 10050   6902   6904      1
 10051   6903   6905      1
 10052   6903   7012      1
 10053   6904   6906      1
 10054   6904   6907      1
 10055   6905   6907      1
 10056   6905   7017      1
 10057   6906   6908      1
 10058   6906   8118      1
 10059   6907   6909      1
 10060   6908   6910      1
 10061   6908   8128      1
 10062   6909   6910      1
 10063   6909   6911      1
 10064   6910   6912      1
 10065   6911   6914      1
 10066   6912   6916      1
 10067   6912   8130      1
 10068   6913   6914      1
 10069   6914   6918      1
 10070   6915   6916      1
 10071   6915   6919      1
 10072   6915   7024      1
 10073   6916   6920      1
 10074   6917   6919      1
 10075   6918   6923      1
 10076   6919   6922      1
 10077   6920   6921      1
 10078   6920   6922      1
 10079   6921   6925      1
 10080   6921   8136      1
 10081   6922   6926      1
 10082   6923   6924      1
 10083   6924   6926      1
 10084   6924   6928      1
 10085   6925   6927      1
 10086   6925   8140      1
 10087   6926   6930      1
 10088   6927   8026      1
 10089   6928   6929      1
 10090   6931   6934      1
 10091   6932   6936      1
 10092   6933   6935      1
 10093   6933   8143      1
 10094   6934   6935      1
 10095   6934   8149      1
 10096   6935   6937      1
 10097   6936   6937      1
 10098   6936   6938      1
 10099   6937   6939      1
 10100   6938   6941      1
 10101   6939   6941      1
 10102   6939   6942      1
 10103   6940   7042      1
 10104   6940   7049      1
 10105   6941   6943      1
 10106   6942   6944      1
 10107   6942   8152      1
 10108   6943   6947      1
 10109   6944   6945      1
 10110   6944   8156      1
 10111   6945   6946      1
 10112   6945   6948      1
 10113   6946   7051      1
 10114   6946   7056      1
 10115   6947   6948      1
 10116   6947   6949      1
 10117   6948   6950      1
 10118   6949   6952      1
 10119   6950   6951      1
 10120   6950   6953      1
 10121   6951   6954      1
 10122   6951   7056      1
 10123   6952   6953      1
 10124   6953   6956      1
 10125   6954   6956      1
 10126   6954   7061      1
 10127   6955   6957      1
 10128   6955   8165      1
 10129   6955   8167      1
 10130   6956   6959      1
 10131   6957   6960      1
 10132   6958   7061      1
 10133   6958   7067      1
 10134   6958   8167      1
 10135   6959   6962      1
 10136   6960   6961      1
 10137   6961   6962      1
 10138   6961   6963      1
 10139   6962   6964      1
 10140   6963   6965      1
 10141   6963   8171      1
 10142   6964   6965      1
 10143   6965   6967      1
 10144   6966   6967      1
 10145   6966   7072      1
 10146   6966   7077      1
 10147   6967   6968      1
 10148   6968   6969      1
 10149   6968   6970      1
 10150   6969   8180      1
 10151   6969   8185      1
 10152   6970   6971      1
 10153   6970   6973      1
 10154   6972   6973      1
 10155   6972   6974      1
 10156   6972   7079      1
 10157   6973   6975      1
 10158   6974   7083      1
 10159   6974   8185      1
 10160   6977   6978      1
 10161   6977   8188      1
 10162   6978   6979      1
 10163   6978   6980      1
 10164   6979   6981      1
 10165   6979   8193      1
 10166   6980   6983      1
 10167   6981   6982      1
 10168   6981   8301      1
 10169   6982   6984      1
 10170   6982   7088      1
 10171   6983   6984      1
 10172   6983   6986      1
 10173   6984   6987      1
 10174   6985   6986      1
 10175   6986   6988      1
 10176   6987   6989      1
 10177   6987   7092      1
 10178   6988   6989      1
 10179   6988   6990      1
 10180   6989   6991      1
 10181   6989   6992      1
 10182   6990   6993      1
 10183   6991   6993      1
 10184   6991   8208      1
 10185   6992   6995      1
 10186   6992   7098      1
 10187   6993   6996      1
 10188   6994   6995      1
 10189   6995   6997      1
 10190   6996   6999      1
 10191   6997   7000      1
 10192   6997   7102      1
 10193   6998   6999      1
 10194   6998   8210      1
 10195   6998   8214      1
 10196   6999   7001      1
 10197   7000   7002      1
 10198   7001   7003      1
 10199   7002   7108      1
 10200   7003   7007      1
 10201   7004   7006      1
 10202   7004   7114      1
 10203   7004   8215      1
 10204   7005   7006      1
 10205   7005   7007      1
 10206   7005   8219      1
 10207   7006   7008      1
 10208   7007   7009      1
 10209   7008   7010      1
 10210   7008   7117      1
 10211   7009   7010      1
 10212   7009   7011      1
 10213   7010   7013      1
 10214   7011   7012      1
 10215   7013   7014      1
 10216   7013   7121      1
 10217   7015   7016      1
 10218   7015   7128      1
 10219   7015   8340      1
 10220   7016   7018      1
 10221   7016   8235      1
 10222   7017   7019      1
 10223   7018   7019      1
 10224   7018   7020      1
 10225   7019   7022      1
 10226   7020   7023      1
 10227   7020   7131      1
 10228   7021   7022      1
 10229   7021   8126      1
 10230   7021   8235      1
 10231   7022   7024      1
 10232   7023   7026      1
 10233   7025   7026      1
 10234   7025   7027      1
 10235   7025   7135      1
 10236   7026   7028      1
 10237   7027   7029      1
 10238   7027   8241      1
 10239   7028   7030      1
 10240   7029   7031      1
 10241   7029   8246      1
 10242   7030   7031      1
 10243   7030   7032      1
 10244   7031   7033      1
 10245   7032   7034      1
 10246   7033   7034      1
 10247   7033   8250      1
 10248   7035   7145      1
 10249   7036   7037      1
 10250   7036   7038      1
 10251   7037   7039      1
 10252   7038   7040      1
 10253   7038   8253      1
 10254   7039   7040      1
 10255   7039   7043      1
 10256   7040   7044      1
 10257   7041   7045      1
 10258   7042   7043      1
 10259   7043   7046      1
 10260   7044   7047      1
 10261   7044   8258      1
 10262   7045   7048      1
 10263   7046   7047      1
 10264   7046   7049      1
 10265   7047   7051      1
 10266   7048   7052      1
 10267   7051   8264      1
 10268   7052   7053      1
 10269   7053   7055      1
 10270   7053   7057      1
 10271   7054   7055      1
 10272   7055   7056      1
 10273   7057   7058      1
 10274   7058   7060      1
 10275   7059   7060      1
 10276   7059   7062      1
 10277   7060   7064      1
 10278   7061   7065      1
 10279   7062   7065      1
 10280   7063   7064      1
 10281   7063   8271      1
 10282   7064   7066      1
 10283   7065   7068      1
 10284   7066   7069      1
 10285   7067   7068      1
 10286   7067   8276      1
 10287   7068   7070      1
 10288   7069   7071      1
 10289   7070   7071      1
 10290   7070   7072      1
 10291   7071   7073      1
 10292   7072   8282      1
 10293   7073   7074      1
 10294   7074   7075      1
 10295   7075   7076      1
 10296   7076   7077      1
 10297   7077   7079      1
 10298   7078   7079      1
 10299   7080   7082      1
 10300   7080   8293      1
 10301   7081   7082      1
 10302   7082   7084      1
 10303   7083   7084      1
 10304   7083   8294      1
 10305   7084   7085      1
 10306   7085   7086      1
 10307   7085   7088      1
 10308   7086   7089      1
 10309   7087   8300      1
 10310   7088   7090      1
 10311   7089   7091      1
 10312   7090   7091      1
 10313   7090   7092      1
 10314   7091   7093      1
 10315   7092   7094      1
 10316   7093   7094      1
 10317   7093   7095      1
 10318   7094   7097      1
 10319   7096   7097      1
 10320   7096   8309      1
 10321   7096   8314      1
 10322   7097   7098      1
 10323   7098   7100      1
 10324   7099   7103      1
 10325   7100   7102      1
 10326   7100   8318      1
 10327   7102   7105      1
 10328   7103   7106      1
 10329   7104   7210      1
 10330   7105   7106      1
 10331   7105   7108      1
 10332   7106   7109      1
 10333   7107   7109      1
 10334   7108   7110      1
 10335   7109   7112      1
 10336   7110   7113      1
 10337   7110   7115      1
 10338   7111   7113      1
 10339   7112   7113      1
 10340   7112   7114      1
 10341   7112   7116      1
 10342   7114   7117      1
 10343   7114   8330      1
 10344   7115   7118      1
 10345   7116   7119      1
 10346   7116   8333      1
 10347   7117   7120      1
 10348   7118   7121      1
 10349   7119   7120      1
 10350   7119   7122      1
 10351   7120   7121      1
 10352   7121   7123      1
 10353   7122   7124      1
 10354   7123   7125      1
 10355   7124   7125      1
 10356   7124   7126      1
 10357   7125   7130      1
 10358   7126   7129      1
 10359   7127   7128      1
 10360   7127   7129      1
 10361   7127   8341      1
 10362   7128   7131      1
 10363   7130   7132      1
 10364   7131   7133      1
 10365   7132   7134      1
 10366   7133   7134      1
 10367   7133   7135      1
 10368   7134   7137      1
 10369   7135   8347      1
 10370   7136   7137      1
 10371   7137   7138      1
 10372   7138   7139      1
 10373   7138   7141      1
 10374   7139   7142      1
 10375   7140   7141      1
 10376   7140   8351      1
 10377   7140   8354      1
 10378   7141   7143      1
 10379   7142   7145      1
 10380   7143   7144      1
 10381   7143   7145      1
 10382   7144   8354      1
 10383   7146   7148      1
 10384   7146   8361      1
 10385   7147   7148      1
 10386   7147   7149      1
 10387   7148   7150      1
 10388   7149   7151      1
 10389   7150   7153      1
 10390   7150   7154      1
 10391   7151   7152      1
 10392   7152   7153      1
 10393   7152   7156      1
 10394   7153   7157      1
 10395   7154   8361      1
 10396   7154   8365      1
 10397   7155   8254      1
 10398   7155   8257      1
 10399   7156   7159      1
 10400   7157   7159      1
 10401   7157   7160      1
 10402   7158   7161      1
 10403   7159   7273      1
 10404   7160   7162      1
 10405   7160   8365      1
 10406   7161   7163      1
 10407   7161   7164      1
 10408   7162   7275      1
 10409   7162   8371      1
 10410   7163   7165      1
 10411   7165   7166      1
 10412   7165   7167      1
 10413   7166   7168      1
 10414   7166   8373      1
 10415   7167   7170      1
 10416   7167   7171      1
 10417   7168   7169      1
 10418   7168   8376      1
 10419   7169   7171      1
 10420   7169   7278      1
 10421   7170   7173      1
 10422   7171   7172      1
 10423   7172   7174      1
 10424   7172   7284      1
 10425   7173   7174      1
 10426   7175   7177      1
 10427   7175   7292      1
 10428   7175   8385      1
 10429   7176   7178      1
 10430   7176   7292      1
 10431   7176   7293      1
 10432   7177   7180      1
 10433   7177   8388      1
 10434   7178   7179      1
 10435   7178   7180      1
 10436   7180   7181      1
 10437   7181   7182      1
 10438   7181   8392      1
 10439   7182   7183      1
 10440   7183   7184      1
 10441   7183   7186      1
 10442   7184   7185      1
 10443   7185   7187      1
 10444   7186   7187      1
 10445   7186   7188      1
 10446   7188   7189      1
 10447   7188   8403      1
 10448   7189   8408      1
 10449   7190   7193      1
 10450   7190   7312      1
 10451   7190   7315      1
 10452   7191   7194      1
 10453   7191   7195      1
 10454   7192   7196      1
 10455   7192   7315      1
 10456   7192   8413      1
 10457   7193   7194      1
 10458   7193   7197      1
 10459   7195   7196      1
 10460   7196   7198      1
 10461   7197   7199      1
 10462   7197   7317      1
 10463   7198   7199      1
 10464   7198   7200      1
 10465   7199   7202      1
 10466   7200   7201      1
 10467   7200   7204      1
 10468   7201   7203      1
 10469   7202   7203      1
 10470   7202   7205      1
 10471   7204   7206      1
 10472   7204   8420      1
 10473   7205   7325      1
 10474   7206   7208      1
 10475   7207   7212      1
 10476   7207   7327      1
 10477   7207   8423      1
 10478   7208   7214      1
 10479   7208   8424      1
 10480   7209   7211      1
 10481   7209   7213      1
 10482   7210   7211      1
 10483   7212   7213      1
 10484   7212   7215      1
 10485   7213   7334      1
 10486   7214   8428      1
 10487   7215   7337      1
 10488   7215   8427      1
 10489   7216   7218      1
 10490   7217   7220      1
 10491   7217   7343      1
 10492   7218   7222      1
 10493   7219   7221      1
 10494   7219   7341      1
 10495   7219   8436      1
 10496   7220   7221      1
 10497   7220   7222      1
 10498   7221   7347      1
 10499   7222   7223      1
 10500   7223   7224      1
 10501   7223   7226      1
 10502   7224   7228      1
 10503   7224   8438      1
 10504   7225   7226      1
 10505   7226   7230      1
 10506   7227   7231      1
 10507   7227   7352      1
 10508   7228   7229      1
 10509   7228   7230      1
 10510   7228   8444      1
 10511   7229   7231      1
 10512   7229   7234      1
 10513   7229   7355      1
 10514   7230   7232      1
 10515   7230   7233      1
 10516   7231   7232      1
 10517   7231   7236      1
 10518   7232   7235      1
 10519   7233   7237      1
 10520   7234   7357      1
 10521   7234   8448      1
 10522   7235   7238      1
 10523   7236   7358      1
 10524   7237   7239      1
 10525   7237   8446      1
 10526   7239   7240      1
 10527   7239   7241      1
 10528   7240   7243      1
 10529   7241   7242      1
 10530   7241   8450      1
 10531   7242   7244      1
 10532   7242   7245      1
 10533   7243   7245      1
 10534   7243   7246      1
 10535   7244   7366      1
 10536   7244   8452      1
 10537   7245   7248      1
 10538   7246   7250      1
 10539   7247   8458      1
 10540   7248   7249      1
 10541   7248   7252      1
 10542   7249   7254      1
 10543   7250   7253      1
 10544   7251   7252      1
 10545   7251   8458      1
 10546   7251   8460      1
 10547   7252   7255      1
 10548   7253   7256      1
 10549   7254   7257      1
 10550   7255   7257      1
 10551   7255   7258      1
 10552   7257   7259      1
 10553   7258   8462      1
 10554   7260   7261      1
 10555   7260   7263      1
 10556   7261   7264      1
 10557   7262   7381      1
 10558   7262   8575      1
 10559   7263   7265      1
 10560   7264   7266      1
 10561   7264   8468      1
 10562   7265   7266      1
 10563   7265   7267      1
 10564   7266   7268      1
 10565   7267   7270      1
 10566   7268   7269      1
 10567   7268   8474      1
 10568   7269   7271      1
 10569   7269   8476      1
 10570   7270   7271      1
 10571   7270   7272      1
 10572   7271   7388      1
 10573   7272   7274      1
 10574   7273   7275      1
 10575   7273   7276      1
 10576   7274   7276      1
 10577   7275   7278      1
 10578   7276   7277      1
 10579   7277   7278      1
 10580   7277   7281      1
 10581   7278   7279      1
 10582   7279   7280      1
 10583   7279   8484      1
 10584   7280   7282      1
 10585   7280   8485      1
 10586   7281   7284      1
 10587   7282   7283      1
 10588   7282   7397      1
 10589   7283   7285      1
 10590   7285   7399      1
 10591   7286   7288      1
 10592   7286   7290      1
 10593   7286   7292      1
 10594   7287   7289      1
 10595   7287   7290      1
 10596   7287   7407      1
 10597   7288   7289      1
 10598   7288   7291      1
 10599   7289   7406      1
 10600   7290   7294      1
 10601   7291   7293      1
 10602   7294   7295      1
 10603   7294   8492      1
 10604   7295   7296      1
 10605   7295   8494      1
 10606   7296   7297      1
 10607   7296   7299      1
 10608   7297   7298      1
 10609   7298   7301      1
 10610   7299   8395      1
 10611   7300   7302      1
 10612   7300   7419      1
 10613   7300   7420      1
 10614   7301   7304      1
 10615   7301   7305      1
 10616   7302   7303      1
 10617   7302   7304      1
 10618   7303   7306      1
 10619   7303   8501      1
 10620   7304   7308      1
 10621   7305   7307      1
 10622   7306   7309      1
 10623   7306   8505      1
 10624   7307   7308      1
 10625   7307   7312      1
 10626   7308   7309      1
 10627   7308   7310      1
 10628   7309   7311      1
 10629   7309   7314      1
 10630   7310   7425      1
 10631   7311   7313      1
 10632   7311   7428      1
 10633   7313   8509      1
 10634   7313   8626      1
 10635   7314   7315      1
 10636   7314   7316      1
 10637   7316   8509      1
 10638   7316   8511      1
 10639   7317   7319      1
 10640   7318   7319      1
 10641   7319   7321      1
 10642   7320   7322      1
 10643   7320   7432      1
 10644   7320   8518      1
 10645   7321   7324      1
 10646   7321   7325      1
 10647   7322   7324      1
 10648   7322   8522      1
 10649   7323   7324      1
 10650   7323   7436      1
 10651   7325   7326      1
 10652   7326   7327      1
 10653   7327   8525      1
 10654   7328   7330      1
 10655   7328   7333      1
 10656   7328   7441      1
 10657   7329   7333      1
 10658   7329   8525      1
 10659   7329   8531      1
 10660   7330   7331      1
 10661   7330   7445      1
 10662   7331   7332      1
 10663   7332   7334      1
 10664   7333   7335      1
 10665   7334   7336      1
 10666   7335   7336      1
 10667   7335   7338      1
 10668   7336   7337      1
 10669   7337   7341      1
 10670   7337   8531      1
 10671   7338   7339      1
 10672   7338   7340      1
 10673   7339   7346      1
 10674   7339   7450      1
 10675   7340   7342      1
 10676   7340   7452      1
 10677   7341   7344      1
 10678   7341   8536      1
 10679   7342   7345      1
 10680   7343   7345      1
 10681   7344   7346      1
 10682   7344   7347      1
 10683   7345   7347      1
 10684   7346   8542      1
 10685   7348   7349      1
 10686   7348   7459      1
 10687   7348   8542      1
 10688   7348   8547      1
 10689   7349   7350      1
 10690   7349   7353      1
 10691   7350   7352      1
 10692   7350   7355      1
 10693   7351   7352      1
 10694   7351   7354      1
 10695   7353   7354      1
 10696   7353   7462      1
 10697   7355   8548      1
 10698   7356   7357      1
 10699   7356   7359      1
 10700   7356   8552      1
 10701   7357   7358      1
 10702   7358   7360      1
 10703   7359   7361      1
 10704   7359   8557      1
 10705   7360   7361      1
 10706   7360   7362      1
 10707   7361   7363      1
 10708   7362   7365      1
 10709   7363   7364      1
 10710   7363   7472      1
 10711   7364   7475      1
 10712   7364   8564      1
 10713   7365   7367      1
 10714   7366   7368      1
 10715   7367   7368      1
 10716   7367   7369      1
 10717   7368   7370      1
 10718   7369   7371      1
 10719   7370   7371      1
 10720   7370   7372      1
 10721   7371   7373      1
 10722   7372   7374      1
 10723   7372   8571      1
 10724   7373   7375      1
 10725   7373   7483      1
 10726   7374   7375      1
 10727   7376   7382      1
 10728   7377   7379      1
 10729   7377   7488      1
 10730   7378   7381      1
 10731   7379   7380      1
 10732   7379   8577      1
 10733   7380   7381      1
 10734   7380   7382      1
 10735   7382   7383      1
 10736   7383   7385      1
 10737   7383   7490      1
 10738   7384   7385      1
 10739   7384   7389      1
 10740   7384   7492      1
 10741   7385   7386      1
 10742   7385   7391      1
 10743   7386   7387      1
 10744   7386   7388      1
 10745   7388   7390      1
 10746   7389   7392      1
 10747   7389   8583      1
 10748   7390   7392      1
 10749   7390   8585      1
 10750   7391   7393      1
 10751   7391   7496      1
 10752   7392   7394      1
 10753   7393   7394      1
 10754   7393   7395      1
 10755   7394   7396      1
 10756   7395   7398      1
 10757   7396   7397      1
 10758   7396   8592      1
 10759   7397   7399      1
 10760   7398   7400      1
 10761   7398   7504      1
 10762   7399   7401      1
 10763   7400   7401      1
 10764   7400   7402      1
 10765   7401   7403      1
 10766   7402   7510      1
 10767   7402   7512      1
 10768   7403   7404      1
 10769   7403   7405      1
 10770   7404   7406      1
 10771   7405   7408      1
 10772   7405   7512      1
 10773   7406   7409      1
 10774   7407   7410      1
 10775   7407   8605      1
 10776   7408   7409      1
 10777   7408   7411      1
 10778   7409   7410      1
 10779   7410   7412      1
 10780   7411   7413      1
 10781   7411   7516      1
 10782   7412   7415      1
 10783   7412   8609      1
 10784   7413   7414      1
 10785   7413   7415      1
 10786   7414   7416      1
 10787   7415   7418      1
 10788   7416   7417      1
 10789   7416   7418      1
 10790   7417   7419      1
 10791   7418   7420      1
 10792   7421   7423      1
 10793   7421   7427      1
 10794   7421   8620      1
 10795   7422   7426      1
 10796   7423   7424      1
 10797   7423   8623      1
 10798   7424   7426      1
 10799   7424   7428      1
 10800   7425   7428      1
 10801   7426   7429      1
 10802   7427   7429      1
 10803   7427   7528      1
 10804   7429   7530      1
 10805   7430   7431      1
 10806   7430   8633      1
 10807   7431   7435      1
 10808   7431   7536      1
 10809   7432   7434      1
 10810   7433   7437      1
 10811   7433   7536      1
 10812   7434   7435      1
 10813   7434   7436      1
 10814   7435   7438      1
 10815   7436   7439      1
 10816   7437   7438      1
 10817   7437   7439      1
 10818   7437   7545      1
 10819   7438   7440      1
 10820   7440   7442      1
 10821   7440   7542      1
 10822   7440   8641      1
 10823   7441   7443      1
 10824   7442   7444      1
 10825   7442   7549      1
 10826   7442   8645      1
 10827   7443   7444      1
 10828   7443   7445      1
 10829   7444   7447      1
 10830   7445   7446      1
 10831   7446   7448      1
 10832   7447   7448      1
 10833   7447   7551      1
 10834   7449   7450      1
 10835   7449   7451      1
 10836   7449   8650      1
 10837   7450   8655      1
 10838   7451   7453      1
 10839   7451   7454      1
 10840   7452   7454      1
 10841   7453   7559      1
 10842   7453   8769      1
 10843   7454   7455      1
 10844   7455   7456      1
 10845   7455   7457      1
 10846   7456   7559      1
 10847   7456   7562      1
 10848   7457   7460      1
 10849   7458   7459      1
 10850   7458   7461      1
 10851   7458   8661      1
 10852   7459   7462      1
 10853   7460   7463      1
 10854   7461   7464      1
 10855   7461   8667      1
 10856   7462   7463      1
 10857   7463   7464      1
 10858   7464   7465      1
 10859   7465   7466      1
 10860   7465   7467      1
 10861   7466   7469      1
 10862   7466   8670      1
 10863   7467   7468      1
 10864   7467   7570      1
 10865   7468   7469      1
 10866   7468   7573      1
 10867   7469   7471      1
 10868   7470   7472      1
 10869   7471   7577      1
 10870   7471   8678      1
 10871   7472   7473      1
 10872   7473   7475      1
 10873   7473   7476      1
 10874   7474   7476      1
 10875   7474   7581      1
 10876   7475   7477      1
 10877   7476   7478      1
 10878   7477   7479      1
 10879   7477   8685      1
 10880   7478   7479      1
 10881   7478   7583      1
 10882   7479   7480      1
 10883   7480   7589      1
 10884   7480   8687      1
 10885   7481   7482      1
 10886   7481   7483      1
 10887   7484   7486      1
 10888   7484   7697      1
 10889   7485   7487      1
 10890   7486   7599      1
 10891   7486   8692      1
 10892   7487   7490      1
 10893   7487   7491      1
 10894   7488   7492      1
 10895   7488   8582      1
 10896   7489   7491      1
 10897   7489   7602      1
 10898   7490   7492      1
 10899   7491   7493      1
 10900   7493   7494      1
 10901   7493   7497      1
 10902   7494   7495      1
 10903   7494   7603      1
 10904   7495   7498      1
 10905   7495   8698      1
 10906   7496   7497      1
 10907   7497   7499      1
 10908   7498   7499      1
 10909   7498   7500      1
 10910   7499   7502      1
 10911   7500   7503      1
 10912   7500   7505      1
 10913   7500   8705      1
 10914   7501   7502      1
 10915   7502   7504      1
 10916   7502   7506      1
 10917   7503   7504      1
 10918   7503   8595      1
 10919   7505   7508      1
 10920   7505   8707      1
 10921   7506   7507      1
 10922   7506   7508      1
 10923   7507   7617      1
 10924   7508   7509      1
 10925   7509   7511      1
 10926   7509   7619      1
 10927   7510   7515      1
 10928   7510   8597      1
 10929   7511   7513      1
 10930   7511   7622      1
 10931   7512   7514      1
 10932   7513   7514      1
 10933   7514   7516      1
 10934   7515   7516      1
 10935   7515   8717      1
 10936   7516   7517      1
 10937   7517   7518      1
 10938   7517   7519      1
 10939   7518   8720      1
 10940   7518   8725      1
 10941   7519   7520      1
 10942   7519   7521      1
 10943   7520   7522      1
 10944   7521   7523      1
 10945   7521   8725      1
 10946   7522   7523      1
 10947   7523   7525      1
 10948   7524   7525      1
 10949   7524   7636      1
 10950   7524   7642      1
 10951   7525   7527      1
 10952   7526   7530      1
 10953   7527   7528      1
 10954   7527   7529      1
 10955   7528   8733      1
 10956   7529   7531      1
 10957   7529   7642      1
 10958   7530   7532      1
 10959   7531   7533      1
 10960   7531   7647      1
 10961   7532   7534      1
 10962   7533   7535      1
 10963   7533   8741      1
 10964   7534   7536      1
 10965   7535   7537      1
 10966   7537   7538      1
 10967   7537   7656      1
 10968   7538   7539      1
 10969   7539   7543      1
 10970   7540   7541      1
 10971   7540   7544      1
 10972   7540   8751      1
 10973   7541   7542      1
 10974   7541   7543      1
 10975   7542   8753      1
 10976   7543   7545      1
 10977   7544   7546      1
 10978   7544   7656      1
 10979   7546   7550      1
 10980   7546   7661      1
 10981   7547   7548      1
 10982   7547   7549      1
 10983   7547   8760      1
 10984   7548   7550      1
 10985   7548   8759      1
 10986   7549   7551      1
 10987   7550   7552      1
 10988   7551   7553      1
 10989   7552   7554      1
 10990   7552   7664      1
 10991   7553   7554      1
 10992   7553   7555      1
 10993   7554   7556      1
 10994   7557   7558      1
 10995   7557   7664      1
 10996   7557   7666      1
 10997   7558   7560      1
 10998   7558   8768      1
 10999   7559   7560      1
 11000   7560   7561      1
 11001   7561   7562      1
 11002   7561   7564      1
 11003   7562   7563      1
 11004   7564   7565      1
 11005   7564   7567      1
 11006   7565   7568      1
 11007   7565   8776      1
 11008   7566   7567      1
 11009   7566   7675      1
 11010   7567   7569      1
 11011   7568   7571      1
 11012   7568   8780      1
 11013   7569   7571      1
 11014   7569   7679      1
 11015   7571   8783      1
 11016   7572   7573      1
 11017   7572   7574      1
 11018   7573   7575      1
 11019   7574   7576      1
 11020   7575   7576      1
 11021   7575   7578      1
 11022   7576   7579      1
 11023   7577   7578      1
 11024   7577   8791      1
 11025   7578   7580      1
 11026   7579   7580      1
 11027   7579   7689      1
 11028   7580   7582      1
 11029   7581   7583      1
 11030   7582   7584      1
 11031   7582   8794      1
 11032   7583   7585      1
 11033   7584   7691      1
 11034   7584   8800      1
 11035   7585   7586      1
 11036   7585   7587      1
 11037   7586   7590      1
 11038   7587   7589      1
 11039   7587   7591      1
 11040   7588   7590      1
 11041   7588   7695      1
 11042   7589   7592      1
 11043   7590   7591      1
 11044   7593   7595      1
 11045   7593   7596      1
 11046   7594   7598      1
 11047   7594   8805      1
 11048   7595   7699      1
 11049   7596   7597      1
 11050   7597   7599      1
 11051   7597   7697      1
 11052   7598   7600      1
 11053   7598   8810      1
 11054   7599   7603      1
 11055   7600   7601      1
 11056   7600   7606      1
 11057   7601   7604      1
 11058   7601   7702      1
 11059   7602   7605      1
 11060   7603   7605      1
 11061   7604   7607      1
 11062   7605   7608      1
 11063   7606   7609      1
 11064   7606   8812      1
 11065   7607   7608      1
 11066   7608   7610      1
 11067   7609   7611      1
 11068   7609   7708      1
 11069   7610   7613      1
 11070   7610   7614      1
 11071   7611   7612      1
 11072   7611   7712      1
 11073   7612   7613      1
 11074   7612   8818      1
 11075   7613   7615      1
 11076   7614   7617      1
 11077   7615   7616      1
 11078   7615   7618      1
 11079   7616   7714      1
 11080   7616   7716      1
 11081   7617   7618      1
 11082   7619   7620      1
 11083   7619   8827      1
 11084   7620   7621      1
 11085   7620   8829      1
 11086   7621   7622      1
 11087   7621   7625      1
 11088   7622   7624      1
 11089   7623   7625      1
 11090   7623   7720      1
 11091   7623   7725      1
 11092   7624   7626      1
 11093   7625   7627      1
 11094   7626   7630      1
 11095   7627   7628      1
 11096   7627   7629      1
 11097   7628   7725      1
 11098   7628   7727      1
 11099   7629   7630      1
 11100   7629   7631      1
 11101   7630   7632      1
 11102   7631   7634      1
 11103   7631   8840      1
 11104   7632   7633      1
 11105   7632   7636      1
 11106   7634   7636      1
 11107   7634   7637      1
 11108   7635   7638      1
 11109   7635   7731      1
 11110   7637   7641      1
 11111   7637   8845      1
 11112   7638   7639      1
 11113   7638   7640      1
 11114   7639   7643      1
 11115   7640   7644      1
 11116   7640   7736      1
 11117   7641   7642      1
 11118   7641   8850      1
 11119   7643   7645      1
 11120   7643   7646      1
 11121   7644   7645      1
 11122   7644   7740      1
 11123   7645   7648      1
 11124   7646   7647      1
 11125   7647   7648      1
 11126   7648   7650      1
 11127   7649   7650      1
 11128   7649   7740      1
 11129   7649   7745      1
 11130   7650   7652      1
 11131   7651   7652      1
 11132   7651   8857      1
 11133   7651   8859      1
 11134   7652   7653      1
 11135   7653   7654      1
 11136   7653   7655      1
 11137   7654   7657      1
 11138   7654   7749      1
 11139   7655   7656      1
 11140   7655   7659      1
 11141   7656   7658      1
 11142   7657   7660      1
 11143   7657   7754      1
 11144   7658   7661      1
 11145   7659   7660      1
 11146   7659   8870      1
 11147   7660   7662      1
 11148   7662   7762      1
 11149   7662   8875      1
 11150   7663   7664      1
 11151   7663   8766      1
 11152   7663   8880      1
 11153   7665   7771      1
 11154   7666   7668      1
 11155   7666   7669      1
 11156   7667   7671      1
 11157   7668   7670      1
 11158   7668   8890      1
 11159   7670   7671      1
 11160   7670   7779      1
 11161   7671   7672      1
 11162   7672   7673      1
 11163   7672   7784      1
 11164   7673   7674      1
 11165   7674   7675      1
 11166   7674   7677      1
 11167   7676   7677      1
 11168   7676   7784      1
 11169   7676   7788      1
 11170   7677   7678      1
 11171   7678   7679      1
 11172   7678   7681      1
 11173   7679   7682      1
 11174   7680   7681      1
 11175   7680   7788      1
 11176   7680   7795      1
 11177   7681   7683      1
 11178   7682   7684      1
 11179   7682   8785      1
 11180   7683   7684      1
 11181   7683   7686      1
 11182   7684   8905      1
 11183   7685   7687      1
 11184   7685   7795      1
 11185   7685   7800      1
 11186   7686   7687      1
 11187   7686   7688      1
 11188   7687   7802      1
 11189   7688   7689      1
 11190   7689   7691      1
 11191   7690   7691      1
 11192   7690   8905      1
 11193   7690   8910      1
 11194   7691   7693      1
 11195   7692   7694      1
 11196   7692   8910      1
 11197   7692   8912      1
 11198   7693   7694      1
 11199   7693   7695      1
 11200   7694   7696      1
 11201   7696   7810      1
 11202   7698   8918      1
 11203   7699   7700      1
 11204   7700   7701      1
 11205   7700   7702      1
 11206   7701   7704      1
 11207   7702   7705      1
 11208   7703   7705      1
 11209   7703   7706      1
 11210   7703   8922      1
 11211   7704   7707      1
 11212   7705   7708      1
 11213   7706   7707      1
 11214   7706   7820      1
 11215   7707   7709      1
 11216   7708   7710      1
 11217   7709   7711      1
 11218   7710   7711      1
 11219   7710   7712      1
 11220   7711   7713      1
 11221   7712   7714      1
 11222   7713   7714      1
 11223   7713   7715      1
 11224   7715   7716      1
 11225   7717   7719      1
 11226   7717   7833      1
 11227   7718   7719      1
 11228   7718   7721      1
 11229   7718   7838      1
 11230   7719   7722      1
 11231   7720   7721      1
 11232   7720   8934      1
 11233   7721   7723      1
 11234   7722   7724      1
 11235   7723   7724      1
 11236   7723   7725      1
 11237   7724   7726      1
 11238   7726   7727      1
 11239   7727   7731      1
 11240   7728   7730      1
 11241   7728   7847      1
 11242   7729   7730      1
 11243   7729   7733      1
 11244   7729   7848      1
 11245   7730   7732      1
 11246   7731   7734      1
 11247   7732   7734      1
 11248   7732   7735      1
 11249   7733   7735      1
 11250   7733   8948      1
 11251   7734   7736      1
 11252   7735   7737      1
 11253   7736   7738      1
 11254   7737   7738      1
 11255   7737   8954      1
 11256   7739   7742      1
 11257   7739   7862      1
 11258   7739   8956      1
 11259   7740   7741      1
 11260   7741   7743      1
 11261   7742   8963      1
 11262   7742   8966      1
 11263   7743   7744      1
 11264   7743   7746      1
 11265   7744   7750      1
 11266   7745   7746      1
 11267   7745   7749      1
 11268   7746   7751      1
 11269   7747   7749      1
 11270   7747   8859      1
 11271   7747   8963      1
 11272   7748   7868      1
 11273   7748   8966      1
 11274   7748   8970      1
 11275   7750   7751      1
 11276   7750   7752      1
 11277   7751   7753      1
 11278   7752   7755      1
 11279   7753   7754      1
 11280   7753   7756      1
 11281   7754   7758      1
 11282   7755   7756      1
 11283   7755   7757      1
 11284   7756   7759      1
 11285   7756   7875      1
 11286   7757   7760      1
 11287   7758   7759      1
 11288   7758   7762      1
 11289   7759   7760      1
 11290   7759   7763      1
 11291   7760   7764      1
 11292   7761   7763      1
 11293   7761   7875      1
 11294   7761   7883      1
 11295   7762   7765      1
 11296   7763   7766      1
 11297   7763   7884      1
 11298   7764   7768      1
 11299   7765   7766      1
 11300   7765   7769      1
 11301   7766   7768      1
 11302   7766   7770      1
 11303   7767   7772      1
 11304   7767   7884      1
 11305   7768   7771      1
 11306   7769   7774      1
 11307   7769   8881      1
 11308   7770   7773      1
 11309   7770   7776      1
 11310   7771   7775      1
 11311   7772   7773      1
 11312   7772   7775      1
 11313   7772   7889      1
 11314   7773   7892      1
 11315   7774   7776      1
 11316   7774   8986      1
 11317   7776   7777      1
 11318   7777   7778      1
 11319   7777   7780      1
 11320   7778   7781      1
 11321   7778   7892      1
 11322   7778   9093      1
 11323   7779   7780      1
 11324   7779   8986      1
 11325   7780   7782      1
 11326   7781   7782      1
 11327   7781   7783      1
 11328   7782   7785      1
 11329   7783   7786      1
 11330   7783   9101      1
 11331   7784   7785      1
 11332   7785   7787      1
 11333   7786   7787      1
 11334   7786   8996      1
 11335   7787   7789      1
 11336   7788   7789      1
 11337   7789   7792      1
 11338   7790   7791      1
 11339   7790   7793      1
 11340   7791   7794      1
 11341   7791   7899      1
 11342   7792   7795      1
 11343   7792   7796      1
 11344   7793   7797      1
 11345   7794   7796      1
 11346   7794   7903      1
 11347   7796   7798      1
 11348   7797   7798      1
 11349   7797   7799      1
 11350   7798   7801      1
 11351   7799   7802      1
 11352   7800   7803      1
 11353   7800   9007      1
 11354   7801   7803      1
 11355   7801   7804      1
 11356   7802   7805      1
 11357   7803   9012      1
 11358   7804   7806      1
 11359   7804   7912      1
 11360   7805   7807      1
 11361   7806   7807      1
 11362   7806   7809      1
 11363   7807   7810      1
 11364   7808   7809      1
 11365   7808   9014      1
 11366   7808   9123      1
 11367   7809   7811      1
 11368   7810   7811      1
 11369   7812   7814      1
 11370   7812   7815      1
 11371   7813   7814      1
 11372   7813   7816      1
 11373   7814   7817      1
 11374   7815   7818      1
 11375   7815   9019      1
 11376   7816   7921      1
 11377   7817   7818      1
 11378   7817   7819      1
 11379   7818   7820      1
 11380   7819   7822      1
 11381   7819   7823      1
 11382   7820   8923      1
 11383   7821   7822      1
 11384   7821   7925      1
 11385   7821   9028      1
 11386   7822   7824      1
 11387   7823   7825      1
 11388   7824   7825      1
 11389   7824   7826      1
 11390   7825   7827      1
 11391   7826   7828      1
 11392   7826   9030      1
 11393   7827   7829      1
 11394   7828   7830      1
 11395   7828   7831      1
 11396   7829   7831      1
 11397   7830   7834      1
 11398   7830   9035      1
 11399   7831   7832      1
 11400   7832   7833      1
 11401   7832   7835      1
 11402   7834   7835      1
 11403   7834   9042      1
 11404   7835   7838      1
 11405   7836   7840      1
 11406   7836   7939      1
 11407   7836   9153      1
 11408   7837   7839      1
 11409   7837   7941      1
 11410   7838   7841      1
 11411   7839   7842      1
 11412   7839   7843      1
 11413   7840   7843      1
 11414   7840   9048      1
 11415   7841   7845      1
 11416   7841   8940      1
 11417   7842   7846      1
 11418   7843   7844      1
 11419   7844   7845      1
 11420   7844   7846      1
 11421   7845   7848      1
 11422   7846   7847      1
 11423   7848   8942      1
 11424   7849   7850      1
 11425   7849   7947      1
 11426   7850   7851      1
 11427   7850   7852      1
 11428   7851   7853      1
 11429   7852   7854      1
 11430   7852   7953      1
 11431   7853   7854      1
 11432   7853   7855      1
 11433   7854   7856      1
 11434   7855   7857      1
 11435   7856   7859      1
 11436   7856   7959      1
 11437   7857   7858      1
 11438   7857   7861      1
 11439   7858   7859      1
 11440   7858   7863      1
 11441   7859   7860      1
 11442   7859   7865      1
 11443   7860   7963      1
 11444   7860   9062      1
 11445   7862   7863      1
 11446   7862   9067      1
 11447   7863   7866      1
 11448   7864   7865      1
 11449   7865   7867      1
 11450   7865   7968      1
 11451   7866   7867      1
 11452   7866   7868      1
 11453   7867   7869      1
 11454   7868   7871      1
 11455   7869   7870      1
 11456   7869   7872      1
 11457   7870   7975      1
 11458   7871   7872      1
 11459   7871   7873      1
 11460   7872   7874      1
 11461   7873   7875      1
 11462   7873   8970      1
 11463   7874   7876      1
 11464   7874   7878      1
 11465   7875   7878      1
 11466   7876   7880      1
 11467   7877   7879      1
 11468   7877   7984      1
 11469   7877   9077      1
 11470   7878   7879      1
 11471   7878   7881      1
 11472   7879   7882      1
 11473   7880   7881      1
 11474   7881   7884      1
 11475   7882   7883      1
 11476   7882   7886      1
 11477   7883   9085      1
 11478   7885   7886      1
 11479   7885   7986      1
 11480   7885   7989      1
 11481   7886   7887      1
 11482   7887   7890      1
 11483   7887   9089      1
 11484   7888   7890      1
 11485   7888   7989      1
 11486   7888   7993      1
 11487   7889   7891      1
 11488   7890   7893      1
 11489   7890   7894      1
 11490   7891   7893      1
 11491   7892   7893      1
 11492   7894   7895      1
 11493   7894   9094      1
 11494   7895   7993      1
 11495   7895   9207      1
 11496   7896   8000      1
 11497   7896   8004      1
 11498   7897   7903      1
 11499   7897   8996      1
 11500   7897   9105      1
 11501   7898   9104      1
 11502   7898   9105      1
 11503   7899   7902      1
 11504   7900   7901      1
 11505   7900   7904      1
 11506   7900   8011      1
 11507   7902   7903      1
 11508   7902   7904      1
 11509   7903   7906      1
 11510   7904   7905      1
 11511   7905   7907      1
 11512   7905   8016      1
 11513   7906   7907      1
 11514   7906   9112      1
 11515   7907   9113      1
 11516   7908   7909      1
 11517   7908   7910      1
 11518   7909   7911      1
 11519   7910   7913      1
 11520   7910   8017      1
 11521   7911   7912      1
 11522   7911   7914      1
 11523   7913   7914      1
 11524   7913   8021      1
 11525   7914   7915      1
 11526   7915   7916      1
 11527   7916   7917      1
 11528   7916   8021      1
 11529   7917   8027      1
 11530   7918   8027      1
 11531   7918   9124      1
 11532   7919   7922      1
 11533   7919   9131      1
 11534   7919   9135      1
 11535   7920   7923      1
 11536   7920   7924      1
 11537   7921   7923      1
 11538   7922   7924      1
 11539   7922   8033      1
 11540   7923   7926      1
 11541   7924   8038      1
 11542   7925   7927      1
 11543   7925   9135      1
 11544   7926   7927      1
 11545   7926   7928      1
 11546   7927   7929      1
 11547   7928   7930      1
 11548   7929   7931      1
 11549   7929   9144      1
 11550   7930   7931      1
 11551   7930   7933      1
 11552   7931   7934      1
 11553   7932   7933      1
 11554   7932   8040      1
 11555   7932   8044      1
 11556   7933   7935      1
 11557   7934   7935      1
 11558   7934   7936      1
 11559   7935   7937      1
 11560   7936   7939      1
 11561   7936   9150      1
 11562   7937   7941      1
 11563   7938   7940      1
 11564   7938   8044      1
 11565   7938   8049      1
 11566   7939   7941      1
 11567   7940   7943      1
 11568   7942   7943      1
 11569   7942   7944      1
 11570   7942   8049      1
 11571   7943   7945      1
 11572   7944   9159      1
 11573   7945   8053      1
 11574   7946   7947      1
 11575   7946   7949      1
 11576   7947   7950      1
 11577   7948   7950      1
 11578   7948   9054      1
 11579   7948   9164      1
 11580   7949   7952      1
 11581   7949   8059      1
 11582   7950   7953      1
 11583   7951   8057      1
 11584   7951   8066      1
 11585   7951   9166      1
 11586   7952   7954      1
 11587   7952   7955      1
 11588   7953   7955      1
 11589   7954   8063      1
 11590   7955   7957      1
 11591   7956   7958      1
 11592   7956   8066      1
 11593   7956   8072      1
 11594   7957   7959      1
 11595   7958   7960      1
 11596   7958   9171      1
 11597   7960   7962      1
 11598   7960   9176      1
 11599   7961   7964      1
 11600   7961   8073      1
 11601   7962   7967      1
 11602   7962   9177      1
 11603   7963   7966      1
 11604   7963   9176      1
 11605   7964   7965      1
 11606   7964   8078      1
 11607   7965   7969      1
 11608   7966   7967      1
 11609   7966   7968      1
 11610   7967   7970      1
 11611   7968   7971      1
 11612   7969   7971      1
 11613   7969   7972      1
 11614   7970   7973      1
 11615   7970   9181      1
 11616   7971   7974      1
 11617   7972   7973      1
 11618   7972   8080      1
 11619   7973   7976      1
 11620   7974   7975      1
 11621   7974   7977      1
 11622   7976   7978      1
 11623   7976   9186      1
 11624   7977   7978      1
 11625   7977   7980      1
 11626   7978   7979      1
 11627   7979   7981      1
 11628   7979   8086      1
 11629   7980   7981      1
 11630   7982   7983      1
 11631   7982   7984      1
 11632   7982   9189      1
 11633   7983   7985      1
 11634   7983   9193      1
 11635   7984   7986      1
 11636   7985   7987      1
 11637   7985   9195      1
 11638   7986   7987      1
 11639   7987   7988      1
 11640   7988   7990      1
 11641   7988   7991      1
 11642   7989   7990      1
 11643   7990   7992      1
 11644   7991   8103      1
 11645   7991   9198      1
 11646   7992   7994      1
 11647   7993   7995      1
 11648   7994   7995      1
 11649   7994   7998      1
 11650   7995   7996      1
 11651   7996   7999      1
 11652   7996   9204      1
 11653   7997   7999      1
 11654   7997   8106      1
 11655   7997   8111      1
 11656   7998   8000      1
 11657   7999   8110      1
 11658   8000   8001      1
 11659   8001   8003      1
 11660   8001   8005      1
 11661   8002   8006      1
 11662   8002   9211      1
 11663   8003   8007      1
 11664   8003   8116      1
 11665   8004   8005      1
 11666   8005   8008      1
 11667   8006   8007      1
 11668   8006   8009      1
 11669   8007   8008      1
 11670   8007   8010      1
 11671   8008   8011      1
 11672   8009   8013      1
 11673   8009   9216      1
 11674   8010   8012      1
 11675   8010   8127      1
 11676   8011   8014      1
 11677   8012   8015      1
 11678   8012   8125      1
 11679   8013   8014      1
 11680   8013   8015      1
 11681   8014   8016      1
 11682   8015   9220      1
 11683   8016   8017      1
 11684   8017   8018      1
 11685   8018   8019      1
 11686   8019   8020      1
 11687   8020   8022      1
 11688   8020   8136      1
 11689   8021   8023      1
 11690   8022   8024      1
 11691   8022   8026      1
 11692   8022   8139      1
 11693   8023   8024      1
 11694   8024   8025      1
 11695   8025   8027      1
 11696   8025   8028      1
 11697   8028   8141      1
 11698   8029   8030      1
 11699   8029   9235      1
 11700   8030   8031      1
 11701   8031   8144      1
 11702   8032   8033      1
 11703   8032   8034      1
 11704   8032   9241      1
 11705   8033   8037      1
 11706   8034   8036      1
 11707   8034   8151      1
 11708   8035   8036      1
 11709   8035   8152      1
 11710   8036   8037      1
 11711   8037   8038      1
 11712   8038   8039      1
 11713   8039   8040      1
 11714   8041   8042      1
 11715   8041   8161      1
 11716   8041   9352      1
 11717   8042   8045      1
 11718   8042   9252      1
 11719   8043   8044      1
 11720   8043   8045      1
 11721   8043   8046      1
 11722   8045   8047      1
 11723   8047   8161      1
 11724   8047   8163      1
 11725   8048   8049      1
 11726   8048   9255      1
 11727   8048   9262      1
 11728   8050   8051      1
 11729   8050   9264      1
 11730   8050   9268      1
 11731   8051   8053      1
 11732   8051   8054      1
 11733   8052   8054      1
 11734   8052   8170      1
 11735   8052   8172      1
 11736   8053   8056      1
 11737   8054   8055      1
 11738   8055   8056      1
 11739   8055   8060      1
 11740   8056   8059      1
 11741   8057   8058      1
 11742   8057   9159      1
 11743   8058   8061      1
 11744   8058   9268      1
 11745   8059   8063      1
 11746   8060   8064      1
 11747   8061   8062      1
 11748   8061   8065      1
 11749   8062   8067      1
 11750   8062   8176      1
 11751   8062   9272      1
 11752   8063   8068      1
 11753   8064   8068      1
 11754   8064   8182      1
 11755   8065   8066      1
 11756   8065   8069      1
 11757   8067   8069      1
 11758   8067   8183      1
 11759   8068   8070      1
 11760   8069   8071      1
 11761   8070   8073      1
 11762   8071   8074      1
 11763   8071   9279      1
 11764   8072   8073      1
 11765   8072   8074      1
 11766   8074   8076      1
 11767   8075   8077      1
 11768   8076   9177      1
 11769   8076   9284      1
 11770   8077   8078      1
 11771   8077   8079      1
 11772   8078   8080      1
 11773   8079   8081      1
 11774   8079   8196      1
 11775   8080   8082      1
 11776   8081   8082      1
 11777   8081   8083      1
 11778   8082   8084      1
 11779   8083   8085      1
 11780   8083   8200      1
 11781   8084   8085      1
 11782   8084   8086      1
 11783   8085   8087      1
 11784   8086   8088      1
 11785   8087   8089      1
 11786   8087   8205      1
 11787   8088   8090      1
 11788   8089   8091      1
 11789   8089   8093      1
 11790   8090   8091      1
 11791   8090   8092      1
 11792   8091   8094      1
 11793   8092   8096      1
 11794   8093   8095      1
 11795   8093   9299      1
 11796   8094   8095      1
 11797   8094   8098      1
 11798   8095   9305      1
 11799   8096   8099      1
 11800   8097   8098      1
 11801   8098   8103      1
 11802   8099   8100      1
 11803   8099   8102      1
 11804   8100   8101      1
 11805   8100   8213      1
 11806   8101   8218      1
 11807   8101   9307      1
 11808   8102   8104      1
 11809   8103   8106      1
 11810   8104   8107      1
 11811   8104   8220      1
 11812   8105   8106      1
 11813   8107   8108      1
 11814   8107   8109      1
 11815   8108   8112      1
 11816   8108   9312      1
 11817   8109   8111      1
 11818   8109   8114      1
 11819   8110   8112      1
 11820   8110   9208      1
 11821   8111   8116      1
 11822   8112   8115      1
 11823   8113   8114      1
 11824   8113   8223      1
 11825   8113   8228      1
 11826   8114   8117      1
 11827   8115   8120      1
 11828   8115   9317      1
 11829   8116   8118      1
 11830   8117   8118      1
 11831   8117   8119      1
 11832   8119   8122      1
 11833   8119   8228      1
 11834   8120   8121      1
 11835   8120   9319      1
 11836   8121   8123      1
 11837   8121   8125      1
 11838   8122   8123      1
 11839   8122   8126      1
 11840   8123   8124      1
 11841   8124   8236      1
 11842   8124   9324      1
 11843   8125   9323      1
 11844   8126   8129      1
 11845   8127   8128      1
 11846   8128   8130      1
 11847   8129   8131      1
 11848   8129   8239      1
 11849   8130   8131      1
 11850   8131   8132      1
 11851   8132   8134      1
 11852   8132   8135      1
 11853   8133   8135      1
 11854   8133   8242      1
 11855   8133   9446      1
 11856   8134   8136      1
 11857   8134   8137      1
 11858   8135   8138      1
 11859   8137   8138      1
 11860   8137   8139      1
 11861   8139   8141      1
 11862   8140   8142      1
 11863   8143   8146      1
 11864   8144   8147      1
 11865   8144   9339      1
 11866   8145   8148      1
 11867   8145   8252      1
 11868   8146   8147      1
 11869   8146   8149      1
 11870   8147   8148      1
 11871   8148   9342      1
 11872   8149   8252      1
 11873   8150   8151      1
 11874   8150   9339      1
 11875   8150   9344      1
 11876   8151   8153      1
 11877   8152   8154      1
 11878   8153   8154      1
 11879   8153   8155      1
 11880   8154   8156      1
 11881   8155   8159      1
 11882   8155   9351      1
 11883   8156   8158      1
 11884   8157   8159      1
 11885   8157   8261      1
 11886   8157   9461      1
 11887   8158   8159      1
 11888   8158   8264      1
 11889   8159   8160      1
 11890   8160   8162      1
 11891   8160   9354      1
 11892   8161   8162      1
 11893   8162   8164      1
 11894   8163   8165      1
 11895   8164   8165      1
 11896   8164   8166      1
 11897   8166   8167      1
 11898   8166   8267      1
 11899   8168   8169      1
 11900   8168   9362      1
 11901   8169   8170      1
 11902   8169   9263      1
 11903   8171   8172      1
 11904   8172   8177      1
 11905   8173   8174      1
 11906   8173   8175      1
 11907   8173   8277      1
 11908   8174   8178      1
 11909   8174   8282      1
 11910   8175   8284      1
 11911   8175   9372      1
 11912   8176   8177      1
 11913   8176   9373      1
 11914   8177   8179      1
 11915   8178   8180      1
 11916   8178   8181      1
 11917   8179   8180      1
 11918   8179   8182      1
 11919   8181   8184      1
 11920   8181   8286      1
 11921   8182   8186      1
 11922   8183   8187      1
 11923   8183   9382      1
 11924   8184   8185      1
 11925   8184   8291      1
 11926   8186   8187      1
 11927   8186   8188      1
 11928   8187   8189      1
 11929   8188   8191      1
 11930   8189   8190      1
 11931   8189   8191      1
 11932   8190   8192      1
 11933   8190   9385      1
 11934   8191   8193      1
 11935   8192   8195      1
 11936   8192   9491      1
 11937   8193   8197      1
 11938   8194   8196      1
 11939   8194   9281      1
 11940   8194   9391      1
 11941   8195   8197      1
 11942   8195   8299      1
 11943   8196   8198      1
 11944   8197   8198      1
 11945   8198   8199      1
 11946   8199   8200      1
 11947   8199   9391      1
 11948   8199   9395      1
 11949   8200   8202      1
 11950   8201   8203      1
 11951   8201   8308      1
 11952   8202   8205      1
 11953   8202   9399      1
 11954   8203   8207      1
 11955   8203   8208      1
 11956   8204   8206      1
 11957   8204   8207      1
 11958   8204   8311      1
 11959   8205   9296      1
 11960   8206   9401      1
 11961   8206   9508      1
 11962   8207   8209      1
 11963   8208   8210      1
 11964   8209   8210      1
 11965   8209   8211      1
 11966   8211   8212      1
 11967   8211   9405      1
 11968   8212   8213      1
 11969   8212   8217      1
 11970   8213   8216      1
 11971   8214   8215      1
 11972   8214   8216      1
 11973   8215   8322      1
 11974   8216   8219      1
 11975   8217   8218      1
 11976   8217   9412      1
 11977   8218   9416      1
 11978   8219   8220      1
 11979   8219   8222      1
 11980   8220   8223      1
 11981   8221   8222      1
 11982   8221   8225      1
 11983   8221   8326      1
 11984   8222   8224      1
 11985   8223   8224      1
 11986   8224   8226      1
 11987   8225   8226      1
 11988   8225   8334      1
 11989   8226   8227      1
 11990   8227   8229      1
 11991   8227   8230      1
 11992   8228   8229      1
 11993   8229   8233      1
 11994   8230   8231      1
 11995   8230   9430      1
 11996   8231   8232      1
 11997   8231   8336      1
 11998   8232   8234      1
 11999   8232   8340      1
 12000   8233   8234      1
 12001   8233   8236      1
 12002   8234   8235      1
 12003   8236   8237      1
 12004   8237   8238      1
 12005   8237   8239      1
 12006   8238   8240      1
 12007   8238   9433      1
 12008   8239   8242      1
 12009   8240   8243      1
 12010   8240   9441      1
 12011   8241   8243      1
 12012   8241   8347      1
 12013   8242   9436      1
 12014   8243   8244      1
 12015   8244   8246      1
 12016   8244   8247      1
 12017   8245   8247      1
 12018   8245   9441      1
 12019   8245   9448      1
 12020   8246   8248      1
 12021   8247   8249      1
 12022   8248   8249      1
 12023   8248   8250      1
 12024   8249   8251      1
 12025   8251   9451      1
 12026   8252   8253      1
 12027   8253   8255      1
 12028   8254   8255      1
 12029   8255   8256      1
 12030   8256   8257      1
 12031   8256   8258      1
 12032   8257   8259      1
 12033   8258   8260      1
 12034   8259   8262      1
 12035   8260   8261      1
 12036   8260   8264      1
 12037   8261   8263      1
 12038   8262   8263      1
 12039   8263   9458      1
 12040   8265   8266      1
 12041   8265   8267      1
 12042   8265   9468      1
 12043   8266   8268      1
 12044   8266   8269      1
 12045   8267   8270      1
 12046   8268   8272      1
 12047   8268   9471      1
 12048   8269   8270      1
 12049   8269   8271      1
 12050   8270   8273      1
 12051   8271   8275      1
 12052   8272   8274      1
 12053   8273   8276      1
 12054   8273   8277      1
 12055   8274   8275      1
 12056   8274   8279      1
 12057   8275   8281      1
 12058   8276   8282      1
 12059   8277   8278      1
 12060   8278   8280      1
 12061   8278   9475      1
 12062   8279   8280      1
 12063   8279   8283      1
 12064   8280   9477      1
 12065   8281   8283      1
 12066   8283   8285      1
 12067   8284   8286      1
 12068   8284   9480      1
 12069   8285   8287      1
 12070   8286   8289      1
 12071   8287   8288      1
 12072   8288   8289      1
 12073   8289   8290      1
 12074   8289   9484      1
 12075   8290   8291      1
 12076   8290   8296      1
 12077   8291   8297      1
 12078   8292   8293      1
 12079   8292   8295      1
 12080   8293   8294      1
 12081   8294   8297      1
 12082   8295   8298      1
 12083   8296   8298      1
 12084   8296   9491      1
 12085   8297   8299      1
 12086   8298   9490      1
 12087   8299   8301      1
 12088   8300   8302      1
 12089   8301   8305      1
 12090   8302   8303      1
 12091   8302   8304      1
 12092   8303   8306      1
 12093   8304   8305      1
 12094   8304   8307      1
 12095   8305   8308      1
 12096   8306   8307      1
 12097   8306   9499      1
 12098   8307   8310      1
 12099   8308   8311      1
 12100   8309   8312      1
 12101   8310   8311      1
 12102   8310   9504      1
 12103   8312   8313      1
 12104   8313   8314      1
 12105   8313   8315      1
 12106   8314   8316      1
 12107   8315   8317      1
 12108   8316   8318      1
 12109   8316   8319      1
 12110   8317   8319      1
 12111   8317   8320      1
 12112   8318   8322      1
 12113   8319   8321      1
 12114   8320   8323      1
 12115   8321   8322      1
 12116   8321   8324      1
 12117   8323   8325      1
 12118   8323   9516      1
 12119   8324   8326      1
 12120   8324   9411      1
 12121   8325   8327      1
 12122   8325   9521      1
 12123   8326   8328      1
 12124   8327   8328      1
 12125   8327   8329      1
 12126   8328   8330      1
 12127   8329   8331      1
 12128   8330   8331      1
 12129   8331   8333      1
 12130   8332   8335      1
 12131   8332   9522      1
 12132   8332   9524      1
 12133   8334   8336      1
 12134   8334   9524      1
 12135   8335   8337      1
 12136   8335   8338      1
 12137   8336   8337      1
 12138   8337   8339      1
 12139   8338   9531      1
 12140   8339   8341      1
 12141   8339   8342      1
 12142   8340   8341      1
 12143   8342   8343      1
 12144   8344   8346      1
 12145   8344   9535      1
 12146   8344   9538      1
 12147   8345   8346      1
 12148   8345   8347      1
 12149   8346   8348      1
 12150   8347   8351      1
 12151   8348   8349      1
 12152   8348   8350      1
 12153   8349   9540      1
 12154   8350   8351      1
 12155   8352   8353      1
 12156   8352   9548      1
 12157   8353   8355      1
 12158   8354   8355      1
 12159   8355   8356      1
 12160   8356   8357      1
 12161   8357   9551      1
 12162   8358   8359      1
 12163   8358   8362      1
 12164   8359   8468      1
 12165   8360   8361      1
 12166   8360   8364      1
 12167   8362   8363      1
 12168   8362   8471      1
 12169   8363   8364      1
 12170   8363   9561      1
 12171   8364   8366      1
 12172   8365   8367      1
 12173   8366   8367      1
 12174   8367   8369      1
 12175   8368   8370      1
 12176   8368   8371      1
 12177   8368   8478      1
 12178   8369   8373      1
 12179   8370   8372      1
 12180   8370   9568      1
 12181   8371   8482      1
 12182   8372   8374      1
 12183   8372   9570      1
 12184   8373   8375      1
 12185   8374   8375      1
 12186   8374   9463      1
 12187   8375   8377      1
 12188   8376   8378      1
 12189   8376   8482      1
 12190   8377   8378      1
 12191   8377   8379      1
 12192   8378   8381      1
 12193   8379   8382      1
 12194   8380   8383      1
 12195   8380   9578      1
 12196   8381   8382      1
 12197   8381   8383      1
 12198   8381   8385      1
 12199   8382   8384      1
 12200   8383   8386      1
 12201   8384   8388      1
 12202   8385   8387      1
 12203   8386   8387      1
 12204   8386   9583      1
 12205   8387   8390      1
 12206   8388   8389      1
 12207   8389   8392      1
 12208   8390   8394      1
 12209   8390   8493      1
 12210   8390   8494      1
 12211   8391   8393      1
 12212   8391   9588      1
 12213   8391   9589      1
 12214   8391   9595      1
 12215   8392   8396      1
 12216   8393   8394      1
 12217   8393   8397      1
 12218   8394   8398      1
 12219   8395   8398      1
 12220   8395   8494      1
 12221   8396   8397      1
 12222   8396   8400      1
 12223   8397   8399      1
 12224   8398   8402      1
 12225   8399   8401      1
 12226   8400   8403      1
 12227   8401   9598      1
 12228   8401  10659      1
 12229   8402   8404      1
 12230   8402   8502      1
 12231   8403   8404      1
 12232   8404   8406      1
 12233   8405   8406      1
 12234   8405   8407      1
 12235   8405   9601      1
 12236   8406   8409      1
 12237   8407   8410      1
 12238   8407   9607      1
 12239   8408   8409      1
 12240   8409   8411      1
 12241   8410   8412      1
 12242   8410   9614      1
 12243   8411   8412      1
 12244   8411   8414      1
 12245   8412   9616      1
 12246   8413   8415      1
 12247   8413   8511      1
 12248   8414   8415      1
 12249   8414   8417      1
 12250   8415   8416      1
 12251   8416   8419      1
 12252   8416   8515      1
 12253   8417   8418      1
 12254   8418   8419      1
 12255   8418   8420      1
 12256   8419   8421      1
 12257   8420   8423      1
 12258   8421   8422      1
 12259   8421   8521      1
 12260   8422   8423      1
 12261   8422   8528      1
 12262   8423   8424      1
 12263   8424   8425      1
 12264   8425   8426      1
 12265   8426   9632      1
 12266   8427   8428      1
 12267   8427   8429      1
 12268   8428   8433      1
 12269   8429   8430      1
 12270   8429   8534      1
 12271   8430   8431      1
 12272   8430   8434      1
 12273   8431   8432      1
 12274   8431   9636      1
 12275   8432   8534      1
 12276   8432   8537      1
 12277   8433   8434      1
 12278   8434   8435      1
 12279   8435   8437      1
 12280   8435   9637      1
 12281   8436   8438      1
 12282   8436   8540      1
 12283   8437   8439      1
 12284   8438   8440      1
 12285   8439   8441      1
 12286   8440   8442      1
 12287   8440   8550      1
 12288   8441   8443      1
 12289   8441   9645      1
 12290   8442   8443      1
 12291   8442   8444      1
 12292   8443   8445      1
 12293   8444   8446      1
 12294   8444   8448      1
 12295   8445   8447      1
 12296   8445   8449      1
 12297   8446   8449      1
 12298   8447   9649      1
 12299   8448   8450      1
 12300   8448   8556      1
 12301   8449   8451      1
 12302   8450   8452      1
 12303   8451   8453      1
 12304   8452   8560      1
 12305   8453   8454      1
 12306   8453   9658      1
 12307   8454   8456      1
 12308   8454   8457      1
 12309   8455   8457      1
 12310   8455   8565      1
 12311   8455   9764      1
 12312   8456   8458      1
 12313   8457   8459      1
 12314   8459   8460      1
 12315   8459   8569      1
 12316   8460   8461      1
 12317   8461   8462      1
 12318   8461   8571      1
 12319   8463   8573      1
 12320   8463   9672      1
 12321   8464   8465      1
 12322   8464   8466      1
 12323   8465   8469      1
 12324   8466   8467      1
 12325   8466   8575      1
 12326   8467   8470      1
 12327   8467   8579      1
 12328   8468   8472      1
 12329   8469   8470      1
 12330   8469   8471      1
 12331   8469   8472      1
 12332   8470   8473      1
 12333   8471   9680      1
 12334   8472   8474      1
 12335   8473   9677      1
 12336   8473   9681      1
 12337   8474   8475      1
 12338   8475   8476      1
 12339   8475   8477      1
 12340   8476   8585      1
 12341   8477   8478      1
 12342   8477   8481      1
 12343   8478   8479      1
 12344   8479   9568      1
 12345   8479   9686      1
 12346   8480   8481      1
 12347   8480   8586      1
 12348   8480   8590      1
 12349   8481   8483      1
 12350   8482   8484      1
 12351   8483   8484      1
 12352   8483   8485      1
 12353   8485   8592      1
 12354   8486   8487      1
 12355   8486   8489      1
 12356   8486   9694      1
 12357   8487   8488      1
 12358   8487   8600      1
 12359   8488   8490      1
 12360   8488   8605      1
 12361   8489   8491      1
 12362   8489   9699      1
 12363   8490   8491      1
 12364   8490   8492      1
 12365   8491   8493      1
 12366   8492   8496      1
 12367   8493   8495      1
 12368   8493   8497      1
 12369   8495   9589      1
 12370   8495   9704      1
 12371   8496   8497      1
 12372   8496   8498      1
 12373   8497   8499      1
 12374   8498   8609      1
 12375   8498   8614      1
 12376   8499   8500      1
 12377   8499   9707      1
 12378   8500   8503      1
 12379   8500   8616      1
 12380   8501   8504      1
 12381   8501   8614      1
 12382   8502   8505      1
 12383   8503   8504      1
 12384   8503   8506      1
 12385   8504   8505      1
 12386   8506   8507      1
 12387   8506   8508      1
 12388   8507   8627      1
 12389   8507   9821      1
 12390   8508   9716      1
 12391   8508   9719      1
 12392   8509   8510      1
 12393   8510   8512      1
 12394   8510   8631      1
 12395   8511   8512      1
 12396   8512   8514      1
 12397   8513   8514      1
 12398   8513   9719      1
 12399   8513   9722      1
 12400   8514   8515      1
 12401   8515   8517      1
 12402   8516   8517      1
 12403   8516   8519      1
 12404   8516   9722      1
 12405   8517   8521      1
 12406   8518   8520      1
 12407   8518   8640      1
 12408   8519   8523      1
 12409   8519   8636      1
 12410   8520   8522      1
 12411   8520   8523      1
 12412   8521   8524      1
 12413   8522   8525      1
 12414   8523   8524      1
 12415   8523   8526      1
 12416   8524   8527      1
 12417   8526   8529      1
 12418   8526   8642      1
 12419   8527   8528      1
 12420   8527   8530      1
 12421   8528   8532      1
 12422   8529   8530      1
 12423   8529   8647      1
 12424   8530   8533      1
 12425   8531   8532      1
 12426   8532   8534      1
 12427   8533   8535      1
 12428   8533   9737      1
 12429   8534   8536      1
 12430   8535   8536      1
 12431   8535   8538      1
 12432   8536   8540      1
 12433   8537   8541      1
 12434   8537   9737      1
 12435   8538   8539      1
 12436   8538   8543      1
 12437   8539   8657      1
 12438   8539   9740      1
 12439   8540   8544      1
 12440   8541   8544      1
 12441   8541   9742      1
 12442   8542   8543      1
 12443   8543   8545      1
 12444   8544   8546      1
 12445   8545   8546      1
 12446   8545   8547      1
 12447   8545   8549      1
 12448   8546   8550      1
 12449   8546   8551      1
 12450   8547   8548      1
 12451   8547   8552      1
 12452   8548   8550      1
 12453   8549   8665      1
 12454   8549   8668      1
 12455   8550   8554      1
 12456   8551   8553      1
 12457   8551   9745      1
 12458   8552   8555      1
 12459   8553   8554      1
 12460   8553   9751      1
 12461   8554   8556      1
 12462   8555   8557      1
 12463   8555   8668      1
 12464   8556   8560      1
 12465   8557   8561      1
 12466   8558   8559      1
 12467   8558   8562      1
 12468   8558   8675      1
 12469   8559   9757      1
 12470   8559   9758      1
 12471   8560   8563      1
 12472   8561   8562      1
 12473   8561   8564      1
 12474   8562   8563      1
 12475   8563   8565      1
 12476   8564   8683      1
 12477   8565   8567      1
 12478   8566   8568      1
 12479   8566   8683      1
 12480   8566   8684      1
 12481   8567   8568      1
 12482   8567   8569      1
 12483   8568   8570      1
 12484   8569   8571      1
 12485   8570   8572      1
 12486   8570   9770      1
 12487   8571   8573      1
 12488   8572   8573      1
 12489   8572   9774      1
 12490   8574   8576      1
 12491   8574   9778      1
 12492   8575   8577      1
 12493   8576   8578      1
 12494   8576   8581      1
 12495   8577   8578      1
 12496   8578   8579      1
 12497   8579   8580      1
 12498   8580   9677      1
 12499   8580   9780      1
 12500   8581   8582      1
 12501   8581   8696      1
 12502   8582   8583      1
 12503   8583   8584      1
 12504   8584   8587      1
 12505   8584   8697      1
 12506   8585   8586      1
 12507   8586   8588      1
 12508   8587   8588      1
 12509   8587   8706      1
 12510   8588   8591      1
 12511   8589   8590      1
 12512   8589   9689      1
 12513   8589   9794      1
 12514   8590   8594      1
 12515   8591   8593      1
 12516   8591   8594      1
 12517   8592   8594      1
 12518   8593   8595      1
 12519   8593   8706      1
 12520   8595   8597      1
 12521   8596   8598      1
 12522   8596   8709      1
 12523   8596   9800      1
 12524   8597   8601      1
 12525   8598   8599      1
 12526   8598   8602      1
 12527   8599   8601      1
 12528   8599   8712      1
 12529   8600   8602      1
 12530   8600   9802      1
 12531   8601   8604      1
 12532   8602   8603      1
 12533   8603   8604      1
 12534   8603   8605      1
 12535   8604   8606      1
 12536   8606   8607      1
 12537   8606   8717      1
 12538   8607   8608      1
 12539   8607   8610      1
 12540   8608   8724      1
 12541   8609   8610      1
 12542   8610   8612      1
 12543   8611   8613      1
 12544   8611   8724      1
 12545   8611   9814      1
 12546   8612   8615      1
 12547   8613   8618      1
 12548   8613   9815      1
 12549   8614   8617      1
 12550   8615   8620      1
 12551   8615   8730      1
 12552   8616   8617      1
 12553   8616   9816      1
 12554   8617   8619      1
 12555   8618   8619      1
 12556   8618   8621      1
 12557   8619   8622      1
 12558   8620   8733      1
 12559   8621   8624      1
 12560   8621   8731      1
 12561   8622   8623      1
 12562   8622   8625      1
 12563   8623   8626      1
 12564   8624   8625      1
 12565   8624   8738      1
 12566   8625   8628      1
 12567   8626   8629      1
 12568   8627   8632      1
 12569   8627   9824      1
 12570   8628   8629      1
 12571   8628   8630      1
 12572   8629   8631      1
 12573   8630   8633      1
 12574   8630   8740      1
 12575   8631   8632      1
 12576   8632   8634      1
 12577   8634   8636      1
 12578   8634   9827      1
 12579   8635   8637      1
 12580   8635   8746      1
 12581   8635   9832      1
 12582   8636   8637      1
 12583   8637   8638      1
 12584   8638   8639      1
 12585   8638   8640      1
 12586   8639   8641      1
 12587   8639   8752      1
 12588   8640   8642      1
 12589   8641   8643      1
 12590   8642   8644      1
 12591   8643   8644      1
 12592   8643   8645      1
 12593   8644   8646      1
 12594   8645   8650      1
 12595   8645   8761      1
 12596   8646   8647      1
 12597   8646   8649      1
 12598   8647   8652      1
 12599   8648   8649      1
 12600   8648   8761      1
 12601   8648   8763      1
 12602   8649   8651      1
 12603   8650   8651      1
 12604   8651   8653      1
 12605   8652   8654      1
 12606   8652   9848      1
 12607   8653   8654      1
 12608   8653   8655      1
 12609   8654   8657      1
 12610   8655   8661      1
 12611   8656   8659      1
 12612   8656   8660      1
 12613   8656   8765      1
 12614   8657   8662      1
 12615   8658   8660      1
 12616   8658   8661      1
 12617   8658   8769      1
 12618   8659   8663      1
 12619   8659   9854      1
 12620   8660   8664      1
 12621   8662   8663      1
 12622   8662   8665      1
 12623   8663   8664      1
 12624   8664   8666      1
 12625   8665   9744      1
 12626   8666   8667      1
 12627   8666   8669      1
 12628   8667   8670      1
 12629   8668   8672      1
 12630   8669   8671      1
 12631   8669   8672      1
 12632   8669   8673      1
 12633   8670   8673      1
 12634   8671   8674      1
 12635   8671   9862      1
 12636   8672   8675      1
 12637   8673   8676      1
 12638   8674   8781      1
 12639   8674   9867      1
 12640   8675   8677      1
 12641   8676   8677      1
 12642   8676   8678      1
 12643   8677   8679      1
 12644   8678   8680      1
 12645   8679   8681      1
 12646   8679   8682      1
 12647   8680   8682      1
 12648   8680   8792      1
 12649   8681   8684      1
 12650   8681   9872      1
 12651   8682   8686      1
 12652   8683   8685      1
 12653   8684   9768      1
 12654   8685   8686      1
 12655   8686   8687      1
 12656   8687   8688      1
 12657   8688   8689      1
 12658   8689   9990      1
 12659   8690   8692      1
 12660   8691   8693      1
 12661   8691   8807      1
 12662   8691   9882      1
 12663   8692   8695      1
 12664   8693   8694      1
 12665   8693   8695      1
 12666   8694   8696      1
 12667   8694   9886      1
 12668   8695   8813      1
 12669   8696   8697      1
 12670   8697   8700      1
 12671   8698   8813      1
 12672   8698   8820      1
 12673   8699   8701      1
 12674   8699   8702      1
 12675   8699   9892      1
 12676   8700   8701      1
 12677   8700   9895      1
 12678   8701   8703      1
 12679   8702   8704      1
 12680   8702   8817      1
 12681   8703   8704      1
 12682   8703   8705      1
 12683   8704   8822      1
 12684   8705   8706      1
 12685   8707   8822      1
 12686   8707   8827      1
 12687   8708   8710      1
 12688   8708   8711      1
 12689   8708   9902      1
 12690   8709   8712      1
 12691   8709   9901      1
 12692   8710   8713      1
 12693   8710   8825      1
 12694   8711   8712      1
 12695   8711   8714      1
 12696   8713   8714      1
 12697   8713   8830      1
 12698   8713   9910      1
 12699   8714   8715      1
 12700   8715   8716      1
 12701   8715   8718      1
 12702   8716   8719      1
 12703   8716   8835      1
 12704   8717   8720      1
 12705   8718   8721      1
 12706   8718   9914      1
 12707   8719   8838      1
 12708   8720   8721      1
 12709   8721   8722      1
 12710   8722   8723      1
 12711   8722   8726      1
 12712   8723   8727      1
 12713   8723   9918      1
 12714   8724   8730      1
 12715   8725   8728      1
 12716   8726   8728      1
 12717   8726   8729      1
 12718   8727   8729      1
 12719   8727   9923      1
 12720   8728   8730      1
 12721   8729   8844      1
 12722   8730   8731      1
 12723   8731   8732      1
 12724   8732   8733      1
 12725   8732   8734      1
 12726   8734   8735      1
 12727   8734   8737      1
 12728   8735   8736      1
 12729   8735   9931      1
 12730   8736   8738      1
 12731   8736   9929      1
 12732   8737   8739      1
 12733   8737   8852      1
 12734   8738   8740      1
 12735   8739   8741      1
 12736   8739   8742      1
 12737   8740   8744      1
 12738   8741   8857      1
 12739   8742   8743      1
 12740   8742   8745      1
 12741   8743   8860      1
 12742   8743   9937      1
 12743   8744   8745      1
 12744   8744   8746      1
 12745   8745   8747      1
 12746   8746   8750      1
 12747   8747   8748      1
 12748   8747   8749      1
 12749   8748   8755      1
 12750   8748   8864      1
 12751   8749   8751      1
 12752   8749   8753      1
 12753   8750   8752      1
 12754   8750   8754      1
 12755   8751   8868      1
 12756   8752   8753      1
 12757   8754   8756      1
 12758   8754   9947      1
 12759   8755   8756      1
 12760   8755   9949      1
 12761   8756   8757      1
 12762   8757   8758      1
 12763   8757   8762      1
 12764   8758   8759      1
 12765   8758   8760      1
 12766   8759   8877      1
 12767   8760   8761      1
 12768   8762   8763      1
 12769   8762   9956      1
 12770   8763   8765      1
 12771   8764   8767      1
 12772   8764   8882      1
 12773   8764   9956      1
 12774   8765   9957      1
 12775   8766   8768      1
 12776   8766   8887      1
 12777   8767   8771      1
 12778   8767   9961      1
 12779   8768   8770      1
 12780   8769   8770      1
 12781   8770   8772      1
 12782   8771   8773      1
 12783   8771   8887      1
 12784   8772   8773      1
 12785   8772   8776      1
 12786   8773   8775      1
 12787   8774   8775      1
 12788   8774   9964      1
 12789   8774   9969      1
 12790   8775   8777      1
 12791   8776   8778      1
 12792   8777   8778      1
 12793   8777   8779      1
 12794   8778   8780      1
 12795   8779   8781      1
 12796   8779   9973      1
 12797   8780   8782      1
 12798   8781   8782      1
 12799   8782   8784      1
 12800   8783   8784      1
 12801   8783   8785      1
 12802   8784   8786      1
 12803   8785   8787      1
 12804   8786   8787      1
 12805   8786   8788      1
 12806   8787   8904      1
 12807   8788   8789      1
 12808   8788   8790      1
 12809   8789   8793      1
 12810   8789   9867      1
 12811   8790   8795      1
 12812   8790   8903      1
 12813   8791   8792      1
 12814   8791   8794      1
 12815   8792   8793      1
 12816   8793   8796      1
 12817   8794   8797      1
 12818   8795   8797      1
 12819   8795   8798      1
 12820   8796   9988      1
 12821   8797   8799      1
 12822   8798   8801      1
 12823   8798   9987      1
 12824   8799   8800      1
 12825   8799   8802      1
 12826   8800   8803      1
 12827   8801   8802      1
 12828   8801   9992      1
 12829   8801  10096      1
 12830   8802   8804      1
 12831   8805   8806      1
 12832   8806   8808      1
 12833   8806   8917      1
 12834   8807   8809      1
 12835   8807   8915      1
 12836   8808   8810      1
 12837   8808   8811      1
 12838   8809   8811      1
 12839   8809   9996      1
 12840   8810   8812      1
 12841   8811   8814      1
 12842   8812   8815      1
 12843   8813   8814      1
 12844   8814   8815      1
 12845   8814   8817      1
 12846   8815   8818      1
 12847   8816   8817      1
 12848   8816   8819      1
 12849   8816   9998      1
 12850   8818   8820      1
 12851   8819   8821      1
 12852   8819  10003      1
 12853   8820   8822      1
 12854   8821   8823      1
 12855   8821   8928      1
 12856   8823   8826      1
 12857   8823   8931      1
 12858   8824   8825      1
 12859   8824   8826      1
 12860   8825   9900      1
 12861   8826   8828      1
 12862   8827   8828      1
 12863   8828   8829      1
 12864   8828   8830      1
 12865   8829   8832      1
 12866   8830   8831      1
 12867   8830   8835      1
 12868   8831   8833      1
 12869   8831  10012      1
 12870   8832   8834      1
 12871   8832   8934      1
 12872   8833   8834      1
 12873   8833  10013      1
 12874   8834   8937      1
 12875   8835   8836      1
 12876   8836   8837      1
 12877   8836   8838      1
 12878   8837   8839      1
 12879   8838   8840      1
 12880   8839   8841      1
 12881   8839   8943      1
 12882   8840   8841      1
 12883   8841   8842      1
 12884   8842   8845      1
 12885   8842   8947      1
 12886   8843   8844      1
 12887   8843  10026      1
 12888   8844   8846      1
 12889   8845   8847      1
 12890   8846   8848      1
 12891   8847   8849      1
 12892   8847   8952      1
 12893   8848   8851      1
 12894   8848   8852      1
 12895   8849   8850      1
 12896   8849   8853      1
 12897   8850   8854      1
 12898   8851   8855      1
 12899   8851  10033      1
 12900   8852   8854      1
 12901   8853   8855      1
 12902   8853   8961      1
 12903   8854   8857      1
 12904   8855   8856      1
 12905   8856   8858      1
 12906   8856  10039      1
 12907   8858   8863      1
 12908   8858   8964      1
 12909   8859   8861      1
 12910   8860   8862      1
 12911   8860   8864      1
 12912   8861   8862      1
 12913   8861   8865      1
 12914   8862   8866      1
 12915   8863   8972      1
 12916   8863  10043      1
 12917   8864   9941      1
 12918   8865   8867      1
 12919   8865   8972      1
 12920   8866   8867      1
 12921   8866   8868      1
 12922   8867   8871      1
 12923   8868   8870      1
 12924   8869   8872      1
 12925   8869   8972      1
 12926   8869   8977      1
 12927   8869  10047      1
 12928   8870   8873      1
 12929   8871   8872      1
 12930   8871   8874      1
 12931   8872  10052      1
 12932   8873   8874      1
 12933   8873   8875      1
 12934   8874   8876      1
 12935   8875   8879      1
 12936   8876   8877      1
 12937   8876   8878      1
 12938   8877   8880      1
 12939   8878   8882      1
 12940   8878  10055      1
 12941   8879   8880      1
 12942   8879   8881      1
 12943   8881   8884      1
 12944   8882   8883      1
 12945   8883   8885      1
 12946   8883   8887      1
 12947   8884   8888      1
 12948   8884   8986      1
 12949   8885   8886      1
 12950   8885   8888      1
 12951   8886   8985      1
 12952   8886  10062      1
 12953   8887   8889      1
 12954   8888   8889      1
 12955   8889   8890      1
 12956   8890   8892      1
 12957   8891   8893      1
 12958   8891   8988      1
 12959   8891  10070      1
 12960   8892   8894      1
 12961   8893   8895      1
 12962   8893   8993      1
 12963   8894   8896      1
 12964   8895   8898      1
 12965   8895  10073      1
 12966   8896   8897      1
 12967   8897   8898      1
 12968   8897   8899      1
 12969   8898   8900      1
 12970   8899   9975      1
 12971   8899  10078      1
 12972   8900   8999      1
 12973   8900  10082      1
 12974   8901   8903      1
 12975   8901  10078      1
 12976   8901  10082      1
 12977   8902   8907      1
 12978   8902  10082      1
 12979   8902  10189      1
 12980   8903   8906      1
 12981   8904   8905      1
 12982   8904   8906      1
 12983   8906   8908      1
 12984   8907   8908      1
 12985   8908   8909      1
 12986   8909   8910      1
 12987   8909   9007      1
 12988   8911   8914      1
 12989   8911   9013      1
 12990   8911   9016      1
 12991   8912   9016      1
 12992   8913   8914      1
 12993   8913  10095      1
 12994   8916   9020      1
 12995   8916  10097      1
 12996   8917   8918      1
 12997   8917   8919      1
 12998   8918   8920      1
 12999   8919   8921      1
 13000   8919  10103      1
 13001   8920   8921      1
 13002   8920   8922      1
 13003   8921   8924      1
 13004   8922   8923      1
 13005   8923   9029      1
 13006   8924   8925      1
 13007   8924  10105      1
 13008   8925   8926      1
 13009   8925  10109      1
 13010   8926   8927      1
 13011   8926   8928      1
 13012   8927   8929      1
 13013   8927   9031      1
 13014   8928   8930      1
 13015   8929   8930      1
 13016   8929   8932      1
 13017   8930   8931      1
 13018   8932   8933      1
 13019   8933   8935      1
 13020   8933   9042      1
 13021   8934   8936      1
 13022   8935   8936      1
 13023   8935   8938      1
 13024   8936   8937      1
 13025   8937   8939      1
 13026   8938   8940      1
 13027   8938   9046      1
 13028   8939   8941      1
 13029   8939  10121      1
 13030   8940   8942      1
 13031   8941   8943      1
 13032   8941  10129      1
 13033   8942   8944      1
 13034   8943   8945      1
 13035   8944   9053      1
 13036   8944   9058      1
 13037   8945   8946      1
 13038   8945   8947      1
 13039   8946   8949      1
 13040   8946  10132      1
 13041   8947   8950      1
 13042   8948   8951      1
 13043   8948   9058      1
 13044   8949   8950      1
 13045   8949  10139      1
 13046   8950   8952      1
 13047   8951   8953      1
 13048   8951   8954      1
 13049   8952   8955      1
 13050   8953   9060      1
 13051   8954   8956      1
 13052   8955   8957      1
 13053   8955  10142      1
 13054   8956   8958      1
 13055   8957   8958      1
 13056   8957   8959      1
 13057   8958   8960      1
 13058   8959   8962      1
 13059   8959  10146      1
 13060   8960   8962      1
 13061   8960   9068      1
 13062   8961   8963      1
 13063   8961   8964      1
 13064   8962   8965      1
 13065   8964   8967      1
 13066   8965   9071      1
 13067   8965  10151      1
 13068   8966   8968      1
 13069   8967   8968      1
 13070   8967   8969      1
 13071   8968   8971      1
 13072   8969   8972      1
 13073   8969   8973      1
 13074   8970   8971      1
 13075   8971   8973      1
 13076   8973   8974      1
 13077   8974   8975      1
 13078   8974   8976      1
 13079   8975   9076      1
 13080   8975   9081      1
 13081   8976   8977      1
 13082   8976  10160      1
 13083   8977  10162      1
 13084   8978   8979      1
 13085   8978   8980      1
 13086   8978   9081      1
 13087   8979   8981      1
 13088   8979  10163      1
 13089   8980   8983      1
 13090   8980   9085      1
 13091   8981   8982      1
 13092   8981   8984      1
 13093   8982   8985      1
 13094   8982  10164      1
 13095   8983   8984      1
 13096   8983   9091      1
 13097   8984   8987      1
 13098   8985   8988      1
 13099   8987   8989      1
 13100   8987   8990      1
 13101   8988   8990      1
 13102   8989   9093      1
 13103   8989   9097      1
 13104   8990   8991      1
 13105   8991   8992      1
 13106   8991   8993      1
 13107   8992   8994      1
 13108   8992   9099      1
 13109   8993   8995      1
 13110   8994   8995      1
 13111   8994   8997      1
 13112   8995   8998      1
 13113   8996   8997      1
 13114   8997   9000      1
 13115   8998   8999      1
 13116   8998   9001      1
 13117   9000   9001      1
 13118   9000   9002      1
 13119   9001   9003      1
 13120   9002   9005      1
 13121   9002   9112      1
 13122   9003   9004      1
 13123   9003   9005      1
 13124   9004  10187      1
 13125   9004  10189      1
 13126   9005   9006      1
 13127   9006   9009      1
 13128   9006   9114      1
 13129   9007   9011      1
 13130   9008   9009      1
 13131   9008   9010      1
 13132   9008  10194      1
 13133   9009   9015      1
 13134   9010   9011      1
 13135   9010   9013      1
 13136   9011   9012      1
 13137   9011   9016      1
 13138   9012   9014      1
 13139   9013  10199      1
 13140   9014   9015      1
 13141   9015   9017      1
 13142   9017   9125      1
 13143   9018   9022      1
 13144   9018   9129      1
 13145   9019   9021      1
 13146   9020   9021      1
 13147   9020   9023      1
 13148   9021   9022      1
 13149   9022   9024      1
 13150   9023   9025      1
 13151   9023  10206      1
 13152   9024   9027      1
 13153   9024   9136      1
 13154   9025   9026      1
 13155   9025  10209      1
 13156   9026   9027      1
 13157   9026   9029      1
 13158   9027   9028      1
 13159   9028   9030      1
 13160   9029   9031      1
 13161   9030   9032      1
 13162   9031   9032      1
 13163   9032   9035      1
 13164   9033   9034      1
 13165   9033   9036      1
 13166   9033  10212      1
 13167   9034   9149      1
 13168   9034  10218      1
 13169   9035   9037      1
 13170   9036   9037      1
 13171   9036   9038      1
 13172   9037   9040      1
 13173   9038   9041      1
 13174   9038  10220      1
 13175   9039   9151      1
 13176   9039   9155      1
 13177   9039  10218      1
 13178   9040   9041      1
 13179   9040   9042      1
 13180   9041   9043      1
 13181   9043   9046      1
 13182   9043  10225      1
 13183   9044   9045      1
 13184   9044   9048      1
 13185   9044   9153      1
 13186   9045   9047      1
 13187   9045   9155      1
 13188   9046   9050      1
 13189   9047   9049      1
 13190   9047  10228      1
 13191   9048   9051      1
 13192   9049   9050      1
 13193   9049   9052      1
 13194   9050   9053      1
 13195   9051   9052      1
 13196   9051   9054      1
 13197   9052   9055      1
 13198   9053   9056      1
 13199   9055   9057      1
 13200   9055   9165      1
 13201   9056   9057      1
 13202   9056   9059      1
 13203   9056  10135      1
 13204   9057  10236      1
 13205   9058   9059      1
 13206   9059   9060      1
 13207   9060  10240      1
 13208   9061   9064      1
 13209   9061   9066      1
 13210   9061   9175      1
 13211   9062   9064      1
 13212   9062   9067      1
 13213   9063   9065      1
 13214   9063  10243      1
 13215   9063  10248      1
 13216   9064   9065      1
 13217   9065   9068      1
 13218   9066  10248      1
 13219   9066  10348      1
 13220   9067   9068      1
 13221   9069   9070      1
 13222   9069   9072      1
 13223   9069  10254      1
 13224   9070   9182      1
 13225   9070  10256      1
 13226   9071   9073      1
 13227   9071  10255      1
 13228   9072   9073      1
 13229   9072   9075      1
 13230   9073   9076      1
 13231   9074   9075      1
 13232   9074   9077      1
 13233   9074   9184      1
 13234   9075   9078      1
 13235   9076   9078      1
 13236   9077   9189      1
 13237   9078   9079      1
 13238   9079   9080      1
 13239   9079   9082      1
 13240   9080   9083      1
 13241   9080   9191      1
 13242   9081   9082      1
 13243   9082   9084      1
 13244   9083   9084      1
 13245   9083   9086      1
 13246   9084   9087      1
 13247   9085   9089      1
 13248   9086   9088      1
 13249   9086   9197      1
 13250   9087   9088      1
 13251   9087   9090      1
 13252   9088   9092      1
 13253   9089   9091      1
 13254   9090  10273      1
 13255   9090  10274      1
 13256   9091   9093      1
 13257   9092   9206      1
 13258   9092  10274      1
 13259   9093   9094      1
 13260   9094   9096      1
 13261   9095   9098      1
 13262   9095   9206      1
 13263   9095   9207      1
 13264   9096   9097      1
 13265   9096   9098      1
 13266   9097   9099      1
 13267   9098   9100      1
 13268   9099   9101      1
 13269   9100   9102      1
 13270   9100   9214      1
 13271   9101   9103      1
 13272   9102   9103      1
 13273   9102   9104      1
 13274   9103   9105      1
 13275   9104   9216      1
 13276   9106   9108      1
 13277   9106   9218      1
 13278   9106  10285      1
 13279   9107   9110      1
 13280   9108   9109      1
 13281   9108   9111      1
 13282   9109   9110      1
 13283   9110  10293      1
 13284   9111   9113      1
 13285   9111   9222      1
 13286   9112   9114      1
 13287   9113   9115      1
 13288   9114   9117      1
 13289   9115   9117      1
 13290   9115   9118      1
 13291   9116   9119      1
 13292   9116  10294      1
 13293   9117   9120      1
 13294   9118   9121      1
 13295   9118   9227      1
 13296   9119   9122      1
 13297   9119  10297      1
 13298   9120   9121      1
 13299   9120   9123      1
 13300   9121   9124      1
 13301   9122   9229      1
 13302   9122   9233      1
 13303   9123   9125      1
 13304   9126   9127      1
 13305   9126   9129      1
 13306   9127   9131      1
 13307   9128   9132      1
 13308   9129   9130      1
 13309   9130   9133      1
 13310   9131   9134      1
 13311   9132   9134      1
 13312   9132   9240      1
 13313   9133   9136      1
 13314   9133  10308      1
 13315   9134   9137      1
 13316   9135   9138      1
 13317   9136   9140      1
 13318   9137   9138      1
 13319   9137   9139      1
 13320   9138   9141      1
 13321   9139   9142      1
 13322   9139   9243      1
 13323   9139   9247      1
 13324   9140   9143      1
 13325   9140  10314      1
 13326   9141   9143      1
 13327   9141   9144      1
 13328   9142   9145      1
 13329   9142  10313      1
 13330   9143   9146      1
 13331   9144   9148      1
 13332   9145   9147      1
 13333   9145  10320      1
 13334   9146   9148      1
 13335   9146   9149      1
 13336   9147   9247      1
 13337   9147   9253      1
 13338   9148   9150      1
 13339   9149   9151      1
 13340   9150   9152      1
 13341   9151   9152      1
 13342   9152   9153      1
 13343   9154   9156      1
 13344   9154   9259      1
 13345   9154  10327      1
 13346   9155  10328      1
 13347   9156   9157      1
 13348   9157   9158      1
 13349   9157   9160      1
 13350   9158   9161      1
 13351   9158  10330      1
 13352   9159   9160      1
 13353   9160   9162      1
 13354   9161   9163      1
 13355   9161  10336      1
 13356   9162   9163      1
 13357   9162   9164      1
 13358   9163   9165      1
 13359   9164   9166      1
 13360   9165  10337      1
 13361   9166   9168      1
 13362   9167   9168      1
 13363   9167   9169      1
 13364   9167   9274      1
 13365   9168   9171      1
 13366   9169   9170      1
 13367   9169  10340      1
 13368   9170   9172      1
 13369   9170   9173      1
 13370   9171   9172      1
 13371   9172   9174      1
 13372   9173   9175      1
 13373   9173  10345      1
 13374   9174   9175      1
 13375   9174   9176      1
 13376   9177   9285      1
 13377   9178   9179      1
 13378   9178   9285      1
 13379   9178   9286      1
 13380   9179   9180      1
 13381   9179   9181      1
 13382   9180   9182      1
 13383   9180  10355      1
 13384   9181   9185      1
 13385   9182   9184      1
 13386   9183   9184      1
 13387   9185   9186      1
 13388   9185   9292      1
 13389   9186   9193      1
 13390   9187   9188      1
 13391   9187   9190      1
 13392   9187  10362      1
 13393   9188   9191      1
 13394   9188  10360      1
 13395   9189   9192      1
 13396   9190   9192      1
 13397   9190   9194      1
 13398   9191   9192      1
 13399   9193   9297      1
 13400   9194   9295      1
 13401   9194   9297      1
 13402   9195   9198      1
 13403   9195   9300      1
 13404   9196   9199      1
 13405   9196  10369      1
 13406   9196  10469      1
 13407   9197   9200      1
 13408   9197  10370      1
 13409   9198   9202      1
 13410   9198   9305      1
 13411   9199   9200      1
 13412   9199   9201      1
 13413   9200   9203      1
 13414   9201   9202      1
 13415   9201   9308      1
 13416   9202   9204      1
 13417   9203   9205      1
 13418   9203   9206      1
 13419   9204   9205      1
 13420   9205   9207      1
 13421   9208   9211      1
 13422   9208   9316      1
 13423   9209   9210      1
 13424   9209   9316      1
 13425   9209  10482      1
 13426   9210   9212      1
 13427   9210  10379      1
 13428   9211   9212      1
 13429   9212   9215      1
 13430   9213   9214      1
 13431   9213  10379      1
 13432   9213  10381      1
 13433   9214   9215      1
 13434   9215   9216      1
 13435   9217   9218      1
 13436   9217   9221      1
 13437   9217  10388      1
 13438   9218   9222      1
 13439   9219   9220      1
 13440   9219   9221      1
 13441   9219   9327      1
 13442   9220   9224      1
 13443   9221   9223      1
 13444   9222   9225      1
 13445   9223  10395      1
 13446   9223  10496      1
 13447   9224   9225      1
 13448   9224   9226      1
 13449   9225   9227      1
 13450   9226   9230      1
 13451   9227   9229      1
 13452   9228   9231      1
 13453   9228  10395      1
 13454   9228  10399      1
 13455   9229   9231      1
 13456   9230   9231      1
 13457   9230   9232      1
 13458   9231   9234      1
 13459   9232   9334      1
 13460   9234  10402      1
 13461   9235   9237      1
 13462   9236   9237      1
 13463   9236   9339      1
 13464   9236   9341      1
 13465   9237   9241      1
 13466   9238   9239      1
 13467   9238  10407      1
 13468   9238  10513      1
 13469   9239   9242      1
 13470   9239   9341      1
 13471   9240   9243      1
 13472   9240  10306      1
 13473   9241   9242      1
 13474   9242   9245      1
 13475   9243   9244      1
 13476   9244   9245      1
 13477   9244  10409      1
 13478   9245   9246      1
 13479   9246   9247      1
 13480   9246   9250      1
 13481   9248   9249      1
 13482   9248   9251      1
 13483   9248   9350      1
 13484   9249   9250      1
 13485   9249   9352      1
 13486   9250   9252      1
 13487   9251   9254      1
 13488   9251  10415      1
 13489   9252   9255      1
 13490   9253   9255      1
 13491   9254   9256      1
 13492   9254  10419      1
 13493   9256   9258      1
 13494   9256   9358      1
 13495   9257   9259      1
 13496   9257  10419      1
 13497   9257  10423      1
 13498   9258   9260      1
 13499   9258   9261      1
 13500   9259   9260      1
 13501   9260   9262      1
 13502   9261   9263      1
 13503   9261   9361      1
 13504   9262   9264      1
 13505   9263   9264      1
 13506   9265   9266      1
 13507   9265   9267      1
 13508   9265   9365      1
 13509   9266   9270      1
 13510   9266  10430      1
 13511   9267   9269      1
 13512   9267   9371      1
 13513   9268   9269      1
 13514   9269   9271      1
 13515   9270   9271      1
 13516   9270  10437      1
 13517   9271   9273      1
 13518   9272   9275      1
 13519   9272   9375      1
 13520   9273   9274      1
 13521   9273   9276      1
 13522   9274  10439      1
 13523   9275   9276      1
 13524   9275   9378      1
 13525   9276   9277      1
 13526   9277   9278      1
 13527   9278   9280      1
 13528   9279   9281      1
 13529   9279   9382      1
 13530   9280   9283      1
 13531   9280  10448      1
 13532   9281   9284      1
 13533   9282   9288      1
 13534   9282   9388      1
 13535   9282  10552      1
 13536   9283   9286      1
 13537   9283  10452      1
 13538   9284   9287      1
 13539   9285   9287      1
 13540   9286  10454      1
 13541   9287   9290      1
 13542   9288   9289      1
 13543   9288  10452      1
 13544   9289   9290      1
 13545   9289   9291      1
 13546   9290   9292      1
 13547   9291   9293      1
 13548   9291   9396      1
 13549   9292   9294      1
 13550   9293   9294      1
 13551   9293   9400      1
 13552   9295   9298      1
 13553   9295  10460      1
 13554   9296   9299      1
 13555   9296   9400      1
 13556   9297   9300      1
 13557   9298   9301      1
 13558   9298  10462      1
 13559   9299   9302      1
 13560   9300   9304      1
 13561   9301   9303      1
 13562   9301  10469      1
 13563   9302   9303      1
 13564   9302   9410      1
 13565   9303   9304      1
 13566   9304   9305      1
 13567   9305   9307      1
 13568   9306   9308      1
 13569   9306  10469      1
 13570   9306  10474      1
 13571   9307   9309      1
 13572   9308   9310      1
 13573   9309   9310      1
 13574   9309   9312      1
 13575   9310   9313      1
 13576   9311   9314      1
 13577   9311  10474      1
 13578   9311  10476      1
 13579   9312   9315      1
 13580   9312   9416      1
 13581   9313   9314      1
 13582   9313   9316      1
 13583   9314  10479      1
 13584   9315   9317      1
 13585   9315   9420      1
 13586   9317   9318      1
 13587   9318   9319      1
 13588   9318   9426      1
 13589   9319   9320      1
 13590   9320   9322      1
 13591   9320   9323      1
 13592   9320   9324      1
 13593   9321   9322      1
 13594   9321   9431      1
 13595   9321  10492      1
 13596   9322   9326      1
 13597   9323   9327      1
 13598   9324   9436      1
 13599   9325   9326      1
 13600   9325  10492      1
 13601   9325  10495      1
 13602   9326   9327      1
 13603   9328   9329      1
 13604   9328  10501      1
 13605   9328  10507      1
 13606   9329   9330      1
 13607   9329   9447      1
 13608   9330   9332      1
 13609   9330   9333      1
 13610   9331   9332      1
 13611   9331   9335      1
 13612   9331  10507      1
 13613   9332   9334      1
 13614   9333   9451      1
 13615   9335  10511      1
 13616   9336   9337      1
 13617   9336   9338      1
 13618   9337   9343      1
 13619   9338   9341      1
 13620   9338  10513      1
 13621   9340   9342      1
 13622   9340   9343      1
 13623   9342   9344      1
 13624   9343   9345      1
 13625   9344   9346      1
 13626   9345   9346      1
 13627   9345   9347      1
 13628   9346   9349      1
 13629   9347   9348      1
 13630   9347  10517      1
 13631   9348   9350      1
 13632   9348  10518      1
 13633   9349   9350      1
 13634   9349   9351      1
 13635   9351   9352      1
 13636   9353   9355      1
 13637   9353   9460      1
 13638   9353  10525      1
 13639   9354   9359      1
 13640   9354   9461      1
 13641   9355   9357      1
 13642   9355   9464      1
 13643   9356   9357      1
 13644   9356   9358      1
 13645   9356  10527      1
 13646   9357   9360      1
 13647   9358   9361      1
 13648   9359   9360      1
 13649   9359   9468      1
 13650   9360   9362      1
 13651   9361   9362      1
 13652   9363   9364      1
 13653   9363   9366      1
 13654   9363  10534      1
 13655   9364   9367      1
 13656   9364  10640      1
 13657   9365   9366      1
 13658   9365  10428      1
 13659   9366   9368      1
 13660   9367   9369      1
 13661   9367   9474      1
 13662   9368   9369      1
 13663   9368   9371      1
 13664   9369   9370      1
 13665   9369   9374      1
 13666   9370   9372      1
 13667   9370   9475      1
 13668   9371   9375      1
 13669   9372   9373      1
 13670   9373   9375      1
 13671   9374   9376      1
 13672   9374  10540      1
 13673   9375   9376      1
 13674   9376   9377      1
 13675   9377   9378      1
 13676   9377   9379      1
 13677   9378  10440      1
 13678   9379   9380      1
 13679   9379  10548      1
 13680   9380   9381      1
 13681   9381   9383      1
 13682   9381   9484      1
 13683   9382   9384      1
 13684   9383   9385      1
 13685   9383   9489      1
 13686   9384   9385      1
 13687   9384   9387      1
 13688   9386   9387      1
 13689   9386  10548      1
 13690   9386  10552      1
 13691   9387   9388      1
 13692   9388   9389      1
 13693   9389   9391      1
 13694   9389   9393      1
 13695   9390   9392      1
 13696   9390   9494      1
 13697   9390   9497      1
 13698   9392   9393      1
 13699   9392   9397      1
 13700   9393   9396      1
 13701   9394   9395      1
 13702   9394   9497      1
 13703   9395   9399      1
 13704   9396   9398      1
 13705   9397   9501      1
 13706   9397  10557      1
 13707   9398   9402      1
 13708   9398  10557      1
 13709   9399   9401      1
 13710   9400   9402      1
 13711   9401   9405      1
 13712   9402   9404      1
 13713   9403   9404      1
 13714   9403   9406      1
 13715   9403  10559      1
 13716   9404   9409      1
 13717   9405   9408      1
 13718   9406   9407      1
 13719   9406   9511      1
 13720   9407   9408      1
 13721   9407   9510      1
 13722   9408   9409      1
 13723   9409   9410      1
 13724   9411   9412      1
 13725   9411   9517      1
 13726   9412   9414      1
 13727   9413   9414      1
 13728   9413   9415      1
 13729   9413   9519      1
 13730   9414   9417      1
 13731   9415   9520      1
 13732   9415  10577      1
 13733   9416   9418      1
 13734   9417   9418      1
 13735   9417   9419      1
 13736   9418   9420      1
 13737   9419   9422      1
 13738   9419  10577      1
 13739   9420   9423      1
 13740   9421   9423      1
 13741   9421  10476      1
 13742   9421  10483      1
 13743   9422   9424      1
 13744   9422  10583      1
 13745   9423   9426      1
 13746   9424   9425      1
 13747   9424   9427      1
 13748   9425   9428      1
 13749   9425   9528      1
 13750   9426   9427      1
 13751   9427   9429      1
 13752   9428   9430      1
 13753   9428   9533      1
 13754   9429   9430      1
 13755   9429   9432      1
 13756   9430   9433      1
 13757   9431   9432      1
 13758   9431  10592      1
 13759   9432   9434      1
 13760   9433   9435      1
 13761   9433   9535      1
 13762   9434   9435      1
 13763   9434   9437      1
 13764   9435   9439      1
 13765   9436   9440      1
 13766   9437   9438      1
 13767   9437   9440      1
 13768   9438  10597      1
 13769   9438  10603      1
 13770   9439   9441      1
 13771   9439   9443      1
 13772   9440   9444      1
 13773   9442   9443      1
 13774   9442  10597      1
 13775   9442  10605      1
 13776   9443   9445      1
 13777   9444   9446      1
 13778   9444   9447      1
 13779   9445   9448      1
 13780   9445   9450      1
 13781   9446   9451      1
 13782   9448   9547      1
 13783   9449   9450      1
 13784   9449  10605      1
 13785   9449  10608      1
 13786   9450   9452      1
 13787   9452   9554      1
 13788   9453   9454      1
 13789   9455   9456      1
 13790   9455  10624      1
 13791   9456   9457      1
 13792   9457   9459      1
 13793   9458   9459      1
 13794   9458   9461      1
 13795   9459   9462      1
 13796   9460   9462      1
 13797   9460  10627      1
 13798   9462   9464      1
 13799   9463   9571      1
 13800   9464   9466      1
 13801   9465   9467      1
 13802   9465  10634      1
 13803   9466   9467      1
 13804   9466   9469      1
 13805   9467   9470      1
 13806   9468   9469      1
 13807   9469   9471      1
 13808   9470   9471      1
 13809   9472   9473      1
 13810   9472   9474      1
 13811   9472  10643      1
 13812   9473   9476      1
 13813   9473  10646      1
 13814   9474   9478      1
 13815   9475   9478      1
 13816   9476   9477      1
 13817   9476   9478      1
 13818   9478   9479      1
 13819   9479   9480      1
 13820   9479   9481      1
 13821   9480   9484      1
 13822   9481   9482      1
 13823   9481   9483      1
 13824   9482  10651      1
 13825   9482  10654      1
 13826   9483   9484      1
 13827   9483   9485      1
 13828   9485   9486      1
 13829   9486   9487      1
 13830   9486   9488      1
 13831   9487  10662      1
 13832   9488   9490      1
 13833   9488   9493      1
 13834   9489   9491      1
 13835   9489   9492      1
 13836   9492   9493      1
 13837   9492   9494      1
 13838   9493   9495      1
 13839   9494  10665      1
 13840   9495   9496      1
 13841   9495   9498      1
 13842   9496  10664      1
 13843   9496  10671      1
 13844   9497   9498      1
 13845   9498   9500      1
 13846   9499   9502      1
 13847   9500   9502      1
 13848   9500   9503      1
 13849   9501   9503      1
 13850   9501  10676      1
 13851   9502   9505      1
 13852   9503   9506      1
 13853   9504   9505      1
 13854   9504   9508      1
 13855   9505   9507      1
 13856   9506   9507      1
 13857   9506  10680      1
 13858   9507   9509      1
 13859   9508   9510      1
 13860   9509   9512      1
 13861   9509   9513      1
 13862   9510   9513      1
 13863   9511   9515      1
 13864   9511  10680      1
 13865   9512   9514      1
 13866   9513   9516      1
 13867   9514  10683      1
 13868   9515   9518      1
 13869   9515  10683      1
 13870   9516   9517      1
 13871   9517   9519      1
 13872   9518   9519      1
 13873   9518   9520      1
 13874   9520  10689      1
 13875   9521   9522      1
 13876   9522   9523      1
 13877   9523   9525      1
 13878   9524   9526      1
 13879   9525   9526      1
 13880   9525   9527      1
 13881   9526   9528      1
 13882   9527   9529      1
 13883   9527  10697      1
 13884   9528   9529      1
 13885   9529   9530      1
 13886   9530  10586      1
 13887   9530  10701      1
 13888   9531   9532      1
 13889   9532   9533      1
 13890   9532   9536      1
 13891   9533   9535      1
 13892   9534   9537      1
 13893   9534  10704      1
 13894   9536   9537      1
 13895   9536   9538      1
 13896   9537   9539      1
 13897   9538   9540      1
 13898   9539   9542      1
 13899   9539  10708      1
 13900   9540   9541      1
 13901   9541   9542      1
 13902   9542   9544      1
 13903   9543   9544      1
 13904   9543  10708      1
 13905   9543  10713      1
 13906   9544   9545      1
 13907   9545   9546      1
 13908   9545   9549      1
 13909   9546   9547      1
 13910   9546   9548      1
 13911   9547   9551      1
 13912   9548   9552      1
 13913   9549   9550      1
 13914   9549   9553      1
 13915   9550  10715      1
 13916   9551   9554      1
 13917   9552   9553      1
 13918   9555   9557      1
 13919   9556   9559      1
 13920   9557  10724      1
 13921   9558   9559      1
 13922   9558   9674      1
 13923   9558   9675      1
 13924   9559   9560      1
 13925   9560   9561      1
 13926   9560   9563      1
 13927   9561   9562      1
 13928   9562   9564      1
 13929   9563   9564      1
 13930   9563   9567      1
 13931   9565   9566      1
 13932   9565   9568      1
 13933   9565   9680      1
 13934   9566   9567      1
 13935   9566   9682      1
 13936   9567   9569      1
 13937   9569   9570      1
 13938   9569   9572      1
 13939   9570   9571      1
 13940   9571   9574      1
 13941   9572   9573      1
 13942   9572   9575      1
 13943   9573   9691      1
 13944   9573  10738      1
 13945   9574   9575      1
 13946   9575   9576      1
 13947   9576   9577      1
 13948   9576  10741      1
 13949   9577   9578      1
 13950   9577   9579      1
 13951   9578   9582      1
 13952   9580  11834      1
 13953   9581   9698      1
 13954   9581  10746      1
 13955   9581  10751      1
 13956   9582   9583      1
 13957   9582   9585      1
 13958   9583   9589      1
 13959   9584   9587      1
 13960   9584  10755      1
 13961   9585   9586      1
 13962   9585   9591      1
 13963   9586   9587      1
 13964   9586   9588      1
 13965   9587   9592      1
 13966   9590   9591      1
 13967   9590  10751      1
 13968   9590  10760      1
 13969   9591   9594      1
 13970   9592   9593      1
 13971   9593  10755      1
 13972   9593  10763      1
 13973   9594   9595      1
 13974   9594   9597      1
 13975   9595   9598      1
 13976   9596   9597      1
 13977   9596  10760      1
 13978   9596  10876      1
 13979   9597   9600      1
 13980   9598   9601      1
 13981   9599   9603      1
 13982   9599  10655      1
 13983   9600   9602      1
 13984   9600   9604      1
 13985   9601   9602      1
 13986   9602   9607      1
 13987   9603   9606      1
 13988   9603  10659      1
 13989   9604   9605      1
 13990   9604   9713      1
 13991   9605   9609      1
 13992   9605  10765      1
 13993   9606   9608      1
 13994   9606   9610      1
 13995   9607   9716      1
 13996   9608   9609      1
 13997   9609   9611      1
 13998   9609  10770      1
 13999   9610   9612      1
 14000   9611   9612      1
 14001   9611   9613      1
 14002   9612   9614      1
 14003   9613   9615      1
 14004   9613  10884      1
 14005   9614   9615      1
 14006   9614   9617      1
 14007   9615   9618      1
 14008   9616   9617      1
 14009   9617   9620      1
 14010   9618   9724      1
 14011   9619   9620      1
 14012   9619   9621      1
 14013   9620   9622      1
 14014   9621  10778      1
 14015   9622   9623      1
 14016   9622  10779      1
 14017   9623   9624      1
 14018   9623   9724      1
 14019   9624   9625      1
 14020   9624   9626      1
 14021   9625   9629      1
 14022   9625   9728      1
 14023   9626   9627      1
 14024   9626   9628      1
 14025   9627  10786      1
 14026   9627  10789      1
 14027   9628   9629      1
 14028   9628   9631      1
 14029   9629   9734      1
 14030   9630   9631      1
 14031   9631   9632      1
 14032   9633   9634      1
 14033   9633   9734      1
 14034   9633  10904      1
 14035   9634   9635      1
 14036   9634   9638      1
 14037   9635   9636      1
 14038   9635   9639      1
 14039   9636   9637      1
 14040   9637   9640      1
 14041   9638   9642      1
 14042   9638  10795      1
 14043   9639   9640      1
 14044   9639   9641      1
 14045   9641   9642      1
 14046   9642  10801      1
 14047   9643  10694      1
 14048   9644   9645      1
 14049   9644   9647      1
 14050   9644   9742      1
 14051   9646   9647      1
 14052   9646  10809      1
 14053   9646  10916      1
 14054   9647   9648      1
 14055   9648   9653      1
 14056   9648   9750      1
 14057   9649   9652      1
 14058   9650   9651      1
 14059   9650   9652      1
 14060   9651   9654      1
 14061   9651  10809      1
 14062   9651  10812      1
 14063   9652   9655      1
 14064   9653   9654      1
 14065   9653   9756      1
 14066   9654   9655      1
 14067   9654   9656      1
 14068   9655   9657      1
 14069   9656   9659      1
 14070   9656  10815      1
 14071   9657   9658      1
 14072   9658   9661      1
 14073   9659   9660      1
 14074   9659  10820      1
 14075   9660   9759      1
 14076   9660   9763      1
 14077   9661   9663      1
 14078   9662   9666      1
 14079   9662  10822      1
 14080   9663   9665      1
 14081   9663   9667      1
 14082   9664   9665      1
 14083   9664   9764      1
 14084   9665   9670      1
 14085   9666   9668      1
 14086   9666   9669      1
 14087   9667   9669      1
 14088   9668   9670      1
 14089   9668  10829      1
 14090   9670   9671      1
 14091   9672   9777      1
 14092   9673  10835      1
 14093   9675   9682      1
 14094   9675  10835      1
 14095   9676   9678      1
 14096   9676   9679      1
 14097   9676  10834      1
 14098   9677   9785      1
 14099   9678   9683      1
 14100   9678  10835      1
 14101   9679   9684      1
 14102   9679   9785      1
 14103   9680   9681      1
 14104   9681   9685      1
 14105   9682   9683      1
 14106   9683   9684      1
 14107   9684   9685      1
 14108   9685   9686      1
 14109   9686   9687      1
 14110   9687   9688      1
 14111   9687   9794      1
 14112   9688   9689      1
 14113   9688   9692      1
 14114   9689   9802      1
 14115   9690   9691      1
 14116   9690   9692      1
 14117   9691   9693      1
 14118   9692   9694      1
 14119   9693   9695      1
 14120   9693  10746      1
 14121   9694   9696      1
 14122   9695   9696      1
 14123   9695   9698      1
 14124   9696   9699      1
 14125   9697   9700      1
 14126   9697   9805      1
 14127   9698   9701      1
 14128   9699   9703      1
 14129   9700   9702      1
 14130   9700   9808      1
 14131   9701   9702      1
 14132   9701  10867      1
 14133   9702   9703      1
 14134   9702   9705      1
 14135   9703   9704      1
 14136   9704   9707      1
 14137   9705   9706      1
 14138   9705   9812      1
 14139   9706   9709      1
 14140   9706  10869      1
 14141   9707   9708      1
 14142   9708   9812      1
 14143   9708   9816      1
 14144   9709   9710      1
 14145   9709  10983      1
 14146   9710   9711      1
 14147   9710   9712      1
 14148   9711   9713      1
 14149   9711  10876      1
 14150   9712   9714      1
 14151   9712  10881      1
 14152   9713   9715      1
 14153   9713  10882      1
 14154   9714   9717      1
 14155   9714   9819      1
 14156   9715   9716      1
 14157   9715   9717      1
 14158   9717   9718      1
 14159   9718   9719      1
 14160   9718   9721      1
 14161   9720   9828      1
 14162   9720  10887      1
 14163   9720  10998      1
 14164   9721   9723      1
 14165   9721   9828      1
 14166   9722   9723      1
 14167   9723   9725      1
 14168   9724   9726      1
 14169   9725   9726      1
 14170   9725   9727      1
 14171   9726   9728      1
 14172   9727   9729      1
 14173   9727   9834      1
 14174   9728   9730      1
 14175   9729   9730      1
 14176   9729   9840      1
 14177   9730   9731      1
 14178   9731   9734      1
 14179   9731   9735      1
 14180   9732   9736      1
 14181   9732   9840      1
 14182   9732   9844      1
 14183   9733   9735      1
 14184   9733  10898      1
 14185   9733  10902      1
 14186   9735   9736      1
 14187   9736   9738      1
 14188   9737   9739      1
 14189   9738   9739      1
 14190   9738   9851      1
 14191   9739   9740      1
 14192   9740   9741      1
 14193   9741   9743      1
 14194   9741   9744      1
 14195   9742   9743      1
 14196   9742   9745      1
 14197   9743   9746      1
 14198   9744   9748      1
 14199   9745   9750      1
 14200   9746   9747      1
 14201   9746   9749      1
 14202   9747  10916      1
 14203   9747  10917      1
 14204   9747  10922      1
 14205   9748   9749      1
 14206   9748   9861      1
 14207   9749   9752      1
 14208   9750   9751      1
 14209   9751   9755      1
 14210   9752   9753      1
 14211   9752   9754      1
 14212   9753  10922      1
 14213   9753  10924      1
 14214   9754   9757      1
 14215   9755   9756      1
 14216   9755   9758      1
 14217   9756   9759      1
 14218   9757   9868      1
 14219   9758   9760      1
 14220   9759   9760      1
 14221   9760   9761      1
 14222   9761   9764      1
 14223   9761   9765      1
 14224   9762   9767      1
 14225   9762   9768      1
 14226   9762   9872      1
 14227   9763   9765      1
 14228   9763   9766      1
 14229   9765   9769      1
 14230   9766  10820      1
 14231   9766  10935      1
 14232   9767   9769      1
 14233   9767   9877      1
 14234   9768   9770      1
 14235   9769   9771      1
 14236   9770   9772      1
 14237   9771   9773      1
 14238   9771  10937      1
 14239   9772   9773      1
 14240   9772   9774      1
 14241   9773   9775      1
 14242   9773   9776      1
 14243   9774   9777      1
 14244   9775   9879      1
 14245   9778   9781      1
 14246   9779   9782      1
 14247   9780   9781      1
 14248   9780   9783      1
 14249   9781   9786      1
 14250   9782   9784      1
 14251   9782  11064      1
 14252   9783   9784      1
 14253   9783   9785      1
 14254   9784   9787      1
 14255   9786   9788      1
 14256   9786   9888      1
 14257   9787   9789      1
 14258   9788   9790      1
 14259   9789  10845      1
 14260   9790   9791      1
 14261   9790   9793      1
 14262   9791   9792      1
 14263   9791   9794      1
 14264   9792   9796      1
 14265   9792   9797      1
 14266   9793   9796      1
 14267   9793   9895      1
 14268   9795   9797      1
 14269   9795  10845      1
 14270   9795  10849      1
 14271   9796   9798      1
 14272   9797   9799      1
 14273   9798   9799      1
 14274   9798   9800      1
 14275   9799   9801      1
 14276   9800   9804      1
 14277   9801   9803      1
 14278   9801   9804      1
 14279   9801   9805      1
 14280   9802   9805      1
 14281   9803  10858      1
 14282   9803  10965      1
 14283   9804   9806      1
 14284   9806   9908      1
 14285   9806  10967      1
 14286   9807   9808      1
 14287   9807   9809      1
 14288   9807  10973      1
 14289   9808   9811      1
 14290   9809   9810      1
 14291   9809  10977      1
 14292   9810   9916      1
 14293   9810  11098      1
 14294   9811   9812      1
 14295   9811   9813      1
 14296   9813   9814      1
 14297   9813   9815      1
 14298   9814   9920      1
 14299   9815   9816      1
 14300   9817   9818      1
 14301   9817  10985      1
 14302   9817  10991      1
 14303   9818   9819      1
 14304   9818   9820      1
 14305   9819   9821      1
 14306   9820   9823      1
 14307   9820   9928      1
 14308   9821   9822      1
 14309   9822   9823      1
 14310   9822   9824      1
 14311   9823   9825      1
 14312   9824   9827      1
 14313   9825   9826      1
 14314   9825   9935      1
 14315   9826   9829      1
 14316   9826   9830      1
 14317   9827   9829      1
 14318   9828   9831      1
 14319   9829   9831      1
 14320   9829   9832      1
 14321   9830  11005      1
 14322   9830  11118      1
 14323   9831   9833      1
 14324   9831   9834      1
 14325   9832   9835      1
 14326   9833  11005      1
 14327   9833  11006      1
 14328   9834   9837      1
 14329   9835   9836      1
 14330   9835   9947      1
 14331   9836   9837      1
 14332   9836   9838      1
 14333   9837   9839      1
 14334   9838   9841      1
 14335   9838  11126      1
 14336   9839   9840      1
 14337   9839   9842      1
 14338   9841  11015      1
 14339   9842   9843      1
 14340   9842   9844      1
 14341   9843   9845      1
 14342   9843   9846      1
 14343   9844   9848      1
 14344   9845   9849      1
 14345   9845  11015      1
 14346   9846   9957      1
 14347   9847   9850      1
 14348   9847  10902      1
 14349   9848   9852      1
 14350   9849   9853      1
 14351   9849  11142      1
 14352   9850   9851      1
 14353   9850   9853      1
 14354   9851   9852      1
 14355   9852   9854      1
 14356   9853   9855      1
 14357   9854   9855      1
 14358   9855   9856      1
 14359   9856   9857      1
 14360   9856   9966      1
 14361   9857   9858      1
 14362   9857   9859      1
 14363   9858   9860      1
 14364   9858   9861      1
 14365   9859   9862      1
 14366   9859   9974      1
 14367   9860   9864      1
 14368   9860  11032      1
 14369   9861   9863      1
 14370   9862   9863      1
 14371   9863   9866      1
 14372   9864   9865      1
 14373   9864  11037      1
 14374   9865   9977      1
 14375   9865  11036      1
 14376   9866   9868      1
 14377   9866   9869      1
 14378   9867   9869      1
 14379   9868   9872      1
 14380   9869   9870      1
 14381   9870   9871      1
 14382   9870   9873      1
 14383   9871   9874      1
 14384   9871   9982      1
 14385   9872   9873      1
 14386   9873   9875      1
 14387   9874   9876      1
 14388   9874   9985      1
 14389   9875   9876      1
 14390   9875   9877      1
 14391   9876   9878      1
 14392   9877   9879      1
 14393   9878   9880      1
 14394   9878  11050      1
 14395   9879   9880      1
 14396   9880  11054      1
 14397   9881  10834      1
 14398   9882   9884      1
 14399   9883   9884      1
 14400   9883   9885      1
 14401   9884   9886      1
 14402   9885   9887      1
 14403   9885  11059      1
 14404   9886   9888      1
 14405   9887   9889      1
 14406   9887   9997      1
 14407   9888   9890      1
 14408   9889   9892      1
 14409   9889   9996      1
 14410   9890   9892      1
 14411   9890   9894      1
 14412   9891   9893      1
 14413   9891  10955      1
 14414   9891  11064      1
 14415   9893   9894      1
 14416   9893   9896      1
 14417   9894   9897      1
 14418   9895   9901      1
 14419   9896   9899      1
 14420   9896  11075      1
 14421   9897   9898      1
 14422   9897   9899      1
 14423   9898   9900      1
 14424   9898   9902      1
 14425   9899   9904      1
 14426   9900   9903      1
 14427   9901   9902      1
 14428   9903   9905      1
 14429   9903  10004      1
 14430   9904   9906      1
 14431   9904  11079      1
 14432   9905   9907      1
 14433   9905  10010      1
 14434   9906   9907      1
 14435   9906   9908      1
 14436   9907   9909      1
 14437   9908   9913      1
 14438   9909   9910      1
 14439   9909   9912      1
 14440   9910  10014      1
 14441   9911  10010      1
 14442   9911  10016      1
 14443   9911  11087      1
 14444   9912   9913      1
 14445   9912   9914      1
 14446   9913   9915      1
 14447   9914   9918      1
 14448   9915   9916      1
 14449   9915   9919      1
 14450   9916  11091      1
 14451   9917  10018      1
 14452   9917  10023      1
 14453   9917  11092      1
 14454   9918   9919      1
 14455   9919   9920      1
 14456   9920   9922      1
 14457   9921   9922      1
 14458   9921  11098      1
 14459   9921  11101      1
 14460   9922   9925      1
 14461   9923   9924      1
 14462   9923   9925      1
 14463   9924  10027      1
 14464   9924  10030      1
 14465   9925   9927      1
 14466   9926   9928      1
 14467   9926  10990      1
 14468   9926  11105      1
 14469   9927   9928      1
 14470   9927   9929      1
 14471   9929   9933      1
 14472   9930   9932      1
 14473   9930  11108      1
 14474   9930  11113      1
 14475   9931   9934      1
 14476   9931  10032      1
 14477   9932  10034      1
 14478   9932  10037      1
 14479   9933   9935      1
 14480   9933   9936      1
 14481   9934   9936      1
 14482   9934   9937      1
 14483   9935   9938      1
 14484   9936   9940      1
 14485   9937   9941      1
 14486   9938   9939      1
 14487   9938   9940      1
 14488   9939  11116      1
 14489   9939  11118      1
 14490   9940   9942      1
 14491   9941   9942      1
 14492   9942   9943      1
 14493   9943   9945      1
 14494   9943   9946      1
 14495   9944   9945      1
 14496   9944  11118      1
 14497   9944  11124      1
 14498   9944  11126      1
 14499   9945   9948      1
 14500   9946   9949      1
 14501   9946  10049      1
 14502   9947   9948      1
 14503   9948   9950      1
 14504   9949   9951      1
 14505   9950   9952      1
 14506   9950  11127      1
 14507   9951   9953      1
 14508   9951  10053      1
 14509   9952   9954      1
 14510   9952  11134      1
 14511   9953   9954      1
 14512   9953   9956      1
 14513   9954   9955      1
 14514   9955  10057      1
 14515   9955  11136      1
 14516   9957   9958      1
 14517   9958   9961      1
 14518   9958   9962      1
 14519   9959   9960      1
 14520   9959   9962      1
 14521   9959  11142      1
 14522   9960   9963      1
 14523   9960  11143      1
 14524   9961   9964      1
 14525   9962   9966      1
 14526   9963   9965      1
 14527   9963  10067      1
 14528   9964   9965      1
 14529   9965   9968      1
 14530   9966   9967      1
 14531   9967   9972      1
 14532   9968   9969      1
 14533   9968   9970      1
 14534   9969   9975      1
 14535   9970   9971      1
 14536   9970  10072      1
 14537   9971   9972      1
 14538   9971  11149      1
 14539   9972  11152      1
 14540   9973   9974      1
 14541   9973   9976      1
 14542   9974   9977      1
 14543   9975   9976      1
 14544   9976   9978      1
 14545   9977   9979      1
 14546   9978   9979      1
 14547   9978   9980      1
 14548   9979   9982      1
 14549   9980   9983      1
 14550   9980  10079      1
 14551   9981   9982      1
 14552   9981  11157      1
 14553   9981  11161      1
 14554   9982   9984      1
 14555   9983   9984      1
 14556   9983  10085      1
 14557   9984   9986      1
 14558   9985  11161      1
 14559   9985  11168      1
 14560   9986   9987      1
 14561   9986   9989      1
 14562   9987  10087      1
 14563   9988   9989      1
 14564   9988   9990      1
 14565   9989   9991      1
 14566   9990   9993      1
 14567   9991   9992      1
 14568   9991   9994      1
 14569   9993   9995      1
 14570   9994   9995      1
 14571   9996   9998      1
 14572   9997   9999      1
 14573   9997  11069      1
 14574   9997  11180      1
 14575   9998  10000      1
 14576   9999  10000      1
 14577   9999  11184      1
 14578  10000  10002      1
 14579  10001  10108      1
 14580  10001  11184      1
 14581  10001  11287      1
 14582  10002  10003      1
 14583  10002  10108      1
 14584  10003  10005      1
 14585  10004  10006      1
 14586  10004  11188      1
 14587  10005  10007      1
 14588  10005  10114      1
 14589  10006  10007      1
 14590  10006  10008      1
 14591  10007  10009      1
 14592  10008  10010      1
 14593  10008  11194      1
 14594  10009  10011      1
 14595  10009  10116      1
 14596  10011  11194      1
 14597  10011  11299      1
 14598  10012  10014      1
 14599  10012  10015      1
 14600  10013  10015      1
 14601  10013  10121      1
 14602  10014  10016      1
 14603  10015  10017      1
 14604  10016  10018      1
 14605  10017  10019      1
 14606  10017  10020      1
 14607  10018  10021      1
 14608  10019  10022      1
 14609  10019  10127      1
 14610  10020  10021      1
 14611  10020  10024      1
 14612  10021  10025      1
 14613  10022  10024      1
 14614  10022  10134      1
 14615  10023  10025      1
 14616  10023  11202      1
 14617  10024  10026      1
 14618  10025  10027      1
 14619  10027  10028      1
 14620  10028  10029      1
 14621  10028  11202      1
 14622  10029  10031      1
 14623  10029  11205      1
 14624  10030  10031      1
 14625  10030  10032      1
 14626  10031  10034      1
 14627  10032  10033      1
 14628  10033  10035      1
 14629  10034  10036      1
 14630  10035  10036      1
 14631  10035  10039      1
 14632  10036  10038      1
 14633  10037  10038      1
 14634  10037  11214      1
 14635  10038  10040      1
 14636  10039  10041      1
 14637  10040  10042      1
 14638  10040  11215      1
 14639  10041  10042      1
 14640  10041  10043      1
 14641  10042  10044      1
 14642  10043  10045      1
 14643  10044  10045      1
 14644  10044  10046      1
 14645  10045  10047      1
 14646  10046  10048      1
 14647  10046  11220      1
 14648  10047  10156      1
 14649  10048  10049      1
 14650  10048  10050      1
 14651  10049  11224      1
 14652  10050  10051      1
 14653  10050  10156      1
 14654  10051  10054      1
 14655  10051  10056      1
 14656  10052  10055      1
 14657  10052  10162      1
 14658  10053  10054      1
 14659  10053  10055      1
 14660  10054  10057      1
 14661  10056  10058      1
 14662  10056  10161      1
 14663  10057  10061      1
 14664  10057  11232      1
 14665  10058  10059      1
 14666  10058  10060      1
 14667  10059  10062      1
 14668  10059  10164      1
 14669  10060  10061      1
 14670  10060  10065      1
 14671  10060  11235      1
 14672  10061  10063      1
 14673  10061  10064      1
 14674  10062  10063      1
 14675  10063  10066      1
 14676  10064  10067      1
 14677  10064  11239      1
 14678  10064  11241      1
 14679  10065  10068      1
 14680  10065  11241      1
 14681  10065  11345      1
 14682  10066  10067      1
 14683  10066  10069      1
 14684  10067  10071      1
 14685  10068  10069      1
 14686  10068  10173      1
 14687  10069  10070      1
 14688  10070  10073      1
 14689  10071  10072      1
 14690  10071  11244      1
 14691  10072  10075      1
 14692  10073  10074      1
 14693  10074  10075      1
 14694  10074  10178      1
 14695  10075  10076      1
 14696  10076  10077      1
 14697  10076  11251      1
 14698  10077  10080      1
 14699  10077  11253      1
 14700  10078  10079      1
 14701  10079  10080      1
 14702  10080  10081      1
 14703  10081  10082      1
 14704  10081  10084      1
 14705  10083  10084      1
 14706  10083  11253      1
 14707  10083  11363      1
 14708  10084  10188      1
 14709  10085  10086      1
 14710  10085  10087      1
 14711  10086  10088      1
 14712  10086  11262      1
 14713  10087  10089      1
 14714  10088  10090      1
 14715  10088  11266      1
 14716  10089  10090      1
 14717  10089  10092      1
 14718  10090  10091      1
 14719  10091  10093      1
 14720  10091  10094      1
 14721  10092  10095      1
 14722  10092  10096      1
 14723  10093  10200      1
 14724  10093  11269      1
 14725  10094  10095      1
 14726  10094  10199      1
 14727  10097  10099      1
 14728  10098  10100      1
 14729  10098  10101      1
 14730  10099  10101      1
 14731  10099  10206      1
 14732  10100  11276      1
 14733  10101  10102      1
 14734  10102  10104      1
 14735  10102  10208      1
 14736  10103  10105      1
 14737  10104  11281      1
 14738  10104  11388      1
 14739  10105  10106      1
 14740  10106  10107      1
 14741  10107  10108      1
 14742  10107  10110      1
 14743  10109  10110      1
 14744  10109  10210      1
 14745  10110  10111      1
 14746  10110  10112      1
 14747  10111  10113      1
 14748  10111  10214      1
 14749  10112  10114      1
 14750  10112  10115      1
 14751  10113  10115      1
 14752  10113  10219      1
 14753  10114  10116      1
 14754  10115  10117      1
 14755  10116  10118      1
 14756  10117  10118      1
 14757  10117  10119      1
 14758  10118  10120      1
 14759  10119  10123      1
 14760  10119  11405      1
 14761  10120  10121      1
 14762  10120  10122      1
 14763  10122  10126      1
 14764  10122  10225      1
 14765  10123  10124      1
 14766  10123  10125      1
 14767  10124  10127      1
 14768  10124  11299      1
 14769  10125  10128      1
 14770  10125  11303      1
 14771  10126  10128      1
 14772  10126  10129      1
 14773  10127  10130      1
 14774  10128  10131      1
 14775  10129  10132      1
 14776  10130  10133      1
 14777  10130  10134      1
 14778  10131  10135      1
 14779  10131  10232      1
 14780  10132  10135      1
 14781  10133  10136      1
 14782  10133  11305      1
 14783  10134  10137      1
 14784  10136  10137      1
 14785  10136  11310      1
 14786  10137  10138      1
 14787  10138  10139      1
 14788  10138  10141      1
 14789  10139  10142      1
 14790  10140  10141      1
 14791  10140  11310      1
 14792  10140  11313      1
 14793  10141  10143      1
 14794  10142  10144      1
 14795  10143  10144      1
 14796  10143  10145      1
 14797  10144  10146      1
 14798  10145  10147      1
 14799  10145  11316      1
 14800  10146  10148      1
 14801  10147  10149      1
 14802  10147  10150      1
 14803  10148  10149      1
 14804  10148  10151      1
 14805  10149  10152      1
 14806  10150  11215      1
 14807  10150  11325      1
 14808  10151  10153      1
 14809  10152  10153      1
 14810  10152  10154      1
 14811  10153  10257      1
 14812  10154  10155      1
 14813  10154  11326      1
 14814  10155  10157      1
 14815  10155  10260      1
 14816  10156  10158      1
 14817  10157  10158      1
 14818  10157  10159      1
 14819  10158  10161      1
 14820  10159  10160      1
 14821  10159  10265      1
 14822  10160  10163      1
 14823  10161  11336      1
 14824  10162  10164      1
 14825  10163  10166      1
 14826  10165  10166      1
 14827  10165  10167      1
 14828  10165  10268      1
 14829  10166  10273      1
 14830  10167  10168      1
 14831  10167  10169      1
 14832  10168  10272      1
 14833  10168  11342      1
 14834  10169  10171      1
 14835  10169  11343      1
 14836  10170  10172      1
 14837  10170  10273      1
 14838  10170  10276      1
 14839  10171  10172      1
 14840  10171  10173      1
 14841  10172  10174      1
 14842  10173  10176      1
 14843  10174  10175      1
 14844  10174  10176      1
 14845  10175  10276      1
 14846  10175  10278      1
 14847  10176  10177      1
 14848  10177  10178      1
 14849  10177  10180      1
 14850  10178  10181      1
 14851  10179  10180      1
 14852  10179  10182      1
 14853  10179  10278      1
 14854  10180  10183      1
 14855  10181  10184      1
 14856  10181  11252      1
 14857  10182  10185      1
 14858  10182  10284      1
 14859  10183  10184      1
 14860  10183  10185      1
 14861  10184  11358      1
 14862  10185  10186      1
 14863  10186  10187      1
 14864  10186  10289      1
 14865  10187  10190      1
 14866  10187  10193      1
 14867  10188  10189      1
 14868  10188  10190      1
 14869  10190  10191      1
 14870  10191  10192      1
 14871  10191  11364      1
 14872  10192  10291      1
 14873  10192  11367      1
 14874  10193  10194      1
 14875  10193  10195      1
 14876  10193  10293      1
 14877  10194  10197      1
 14878  10195  10196      1
 14879  10195  10296      1
 14880  10196  10197      1
 14881  10196  10198      1
 14882  10197  10199      1
 14883  10198  10200      1
 14884  10198  10201      1
 14885  10200  11372      1
 14886  10201  10298      1
 14887  10201  11375      1
 14888  10202  10204      1
 14889  10203  10302      1
 14890  10204  10205      1
 14891  10204  10207      1
 14892  10205  10301      1
 14893  10205  11382      1
 14894  10206  10208      1
 14895  10207  10208      1
 14896  10207  11384      1
 14897  10209  10210      1
 14898  10209  10212      1
 14899  10210  10214      1
 14900  10211  10212      1
 14901  10211  10213      1
 14902  10211  10316      1
 14903  10213  10214      1
 14904  10213  10215      1
 14905  10215  11391      1
 14906  10215  11394      1
 14907  10216  10217      1
 14908  10216  11394      1
 14909  10216  11510      1
 14910  10217  10221      1
 14911  10217  10319      1
 14912  10218  10221      1
 14913  10219  10222      1
 14914  10219  11402      1
 14915  10220  10222      1
 14916  10221  10325      1
 14917  10222  10224      1
 14918  10223  10226      1
 14919  10223  10325      1
 14920  10223  11516      1
 14921  10224  10225      1
 14922  10224  10227      1
 14923  10226  10227      1
 14924  10226  10229      1
 14925  10227  10228      1
 14926  10228  10230      1
 14927  10229  10335      1
 14928  10229  11412      1
 14929  10230  10335      1
 14930  10230  10336      1
 14931  10231  10232      1
 14932  10231  11303      1
 14933  10231  11414      1
 14934  10232  10235      1
 14935  10233  10235      1
 14936  10233  11414      1
 14937  10233  11418      1
 14938  10234  10236      1
 14939  10234  10337      1
 14940  10234  10338      1
 14941  10235  10237      1
 14942  10236  10237      1
 14943  10237  10239      1
 14944  10238  10338      1
 14945  10238  11418      1
 14946  10238  11536      1
 14947  10239  10240      1
 14948  10239  10241      1
 14949  10240  10243      1
 14950  10241  10242      1
 14951  10241  10245      1
 14952  10242  10244      1
 14953  10242  11421      1
 14954  10243  10245      1
 14955  10244  10246      1
 14956  10244  11424      1
 14957  10245  10247      1
 14958  10246  10247      1
 14959  10246  10250      1
 14960  10247  10249      1
 14961  10248  10249      1
 14962  10249  10251      1
 14963  10250  10252      1
 14964  10250  11430      1
 14965  10251  10252      1
 14966  10251  10253      1
 14967  10252  10356      1
 14968  10253  10254      1
 14969  10253  10256      1
 14970  10254  10255      1
 14971  10255  10257      1
 14972  10256  10360      1
 14973  10257  10258      1
 14974  10258  10259      1
 14975  10258  10260      1
 14976  10259  10261      1
 14977  10260  10263      1
 14978  10261  10262      1
 14979  10261  10264      1
 14980  10262  10266      1
 14981  10262  10363      1
 14982  10263  10264      1
 14983  10263  10265      1
 14984  10264  10267      1
 14985  10265  10268      1
 14986  10266  10267      1
 14987  10266  10368      1
 14988  10267  10269      1
 14989  10268  10270      1
 14990  10269  10270      1
 14991  10269  10271      1
 14992  10270  10272      1
 14993  10271  10371      1
 14994  10271  11451      1
 14995  10272  11453      1
 14996  10274  10275      1
 14997  10275  10276      1
 14998  10275  10277      1
 14999  10278  10280      1
 15000  10279  10281      1
 15001  10279  10380      1
 15002  10279  11462      1
 15003  10280  10281      1
 15004  10280  11465      1
 15005  10281  10282      1
 15006  10282  10283      1
 15007  10282  10284      1
 15008  10283  10285      1
 15009  10283  10381      1
 15010  10284  10287      1
 15011  10286  10288      1
 15012  10286  10385      1
 15013  10286  11471      1
 15014  10287  10288      1
 15015  10287  10289      1
 15016  10288  10290      1
 15017  10289  10291      1
 15018  10290  10291      1
 15019  10290  11476      1
 15020  10292  10390      1
 15021  10292  10393      1
 15022  10292  11478      1
 15023  10293  10294      1
 15024  10294  10295      1
 15025  10295  10296      1
 15026  10295  10297      1
 15027  10296  10298      1
 15028  10297  10300      1
 15029  10298  10299      1
 15030  10299  11492      1
 15031  10301  10302      1
 15032  10302  10305      1
 15033  10303  10304      1
 15034  10303  10306      1
 15035  10304  10307      1
 15036  10305  10308      1
 15037  10306  10309      1
 15038  10307  10310      1
 15039  10307  11497      1
 15040  10308  10311      1
 15041  10309  10311      1
 15042  10309  10312      1
 15043  10310  10312      1
 15044  10310  11503      1
 15045  10311  10313      1
 15046  10312  10315      1
 15047  10313  10314      1
 15048  10313  10317      1
 15049  10314  10316      1
 15050  10315  10317      1
 15051  10315  10318      1
 15052  10316  10319      1
 15053  10317  10320      1
 15054  10317  10321      1
 15055  10318  10322      1
 15056  10318  11505      1
 15057  10319  10321      1
 15058  10320  10418      1
 15059  10321  10323      1
 15060  10322  10323      1
 15061  10322  10420      1
 15062  10323  10324      1
 15063  10324  11510      1
 15064  10324  11513      1
 15065  10325  10328      1
 15066  10326  10327      1
 15067  10326  10423      1
 15068  10326  10429      1
 15069  10327  10330      1
 15070  10328  10329      1
 15071  10329  10330      1
 15072  10329  10332      1
 15073  10331  10332      1
 15074  10331  10333      1
 15075  10331  10429      1
 15076  10332  10334      1
 15077  10333  11523      1
 15078  10333  11627      1
 15079  10334  10335      1
 15080  10334  11524      1
 15081  10336  10337      1
 15082  10338  10342      1
 15083  10339  10340      1
 15084  10339  10341      1
 15085  10339  10439      1
 15086  10340  10343      1
 15087  10341  10446      1
 15088  10342  10343      1
 15089  10342  10344      1
 15090  10343  10345      1
 15091  10344  10347      1
 15092  10344  11536      1
 15093  10345  10348      1
 15094  10346  10347      1
 15095  10346  10446      1
 15096  10346  11542      1
 15097  10347  10349      1
 15098  10348  10350      1
 15099  10349  10350      1
 15100  10349  10352      1
 15101  10350  10353      1
 15102  10351  10352      1
 15103  10351  11542      1
 15104  10351  11546      1
 15105  10352  10354      1
 15106  10353  10354      1
 15107  10353  10355      1
 15108  10354  10357      1
 15109  10355  10358      1
 15110  10356  10359      1
 15111  10356  11548      1
 15112  10357  10359      1
 15113  10357  11549      1
 15114  10358  10362      1
 15115  10358  10454      1
 15116  10359  10361      1
 15117  10360  10361      1
 15118  10361  10363      1
 15119  10362  10460      1
 15120  10363  10364      1
 15121  10364  10365      1
 15122  10364  11555      1
 15123  10365  10366      1
 15124  10365  11557      1
 15125  10366  10367      1
 15126  10366  10465      1
 15127  10367  10369      1
 15128  10367  10468      1
 15129  10368  10370      1
 15130  10368  10371      1
 15131  10369  10370      1
 15132  10371  10372      1
 15133  10372  11564      1
 15134  10373  10374      1
 15135  10373  10375      1
 15136  10373  10477      1
 15137  10374  10376      1
 15138  10374  11572      1
 15139  10375  10377      1
 15140  10375  10482      1
 15141  10376  10378      1
 15142  10376  11577      1
 15143  10377  10378      1
 15144  10377  10379      1
 15145  10378  10380      1
 15146  10380  10381      1
 15147  10382  10386      1
 15148  10382  10387      1
 15149  10382  10488      1
 15150  10383  10384      1
 15151  10383  10385      1
 15152  10383  11583      1
 15153  10384  10386      1
 15154  10384  11586      1
 15155  10385  10390      1
 15156  10386  10389      1
 15157  10387  10388      1
 15158  10387  10495      1
 15159  10388  10389      1
 15160  10389  10391      1
 15161  10390  10391      1
 15162  10391  10392      1
 15163  10392  10393      1
 15164  10392  10394      1
 15165  10393  10396      1
 15166  10394  10395      1
 15167  10394  10397      1
 15168  10396  10397      1
 15169  10396  10398      1
 15170  10397  10399      1
 15171  10398  10401      1
 15172  10398  11485      1
 15173  10399  10402      1
 15174  10400  10403      1
 15175  10400  10508      1
 15176  10400  11595      1
 15177  10401  11490      1
 15178  10403  11493      1
 15179  10404  10405      1
 15180  10404  11599      1
 15181  10405  10406      1
 15182  10405  10512      1
 15183  10406  10407      1
 15184  10406  10408      1
 15185  10407  10409      1
 15186  10408  10410      1
 15187  10408  11604      1
 15188  10409  10411      1
 15189  10409  10412      1
 15190  10410  10411      1
 15191  10410  10413      1
 15192  10411  10414      1
 15193  10412  10415      1
 15194  10412  10518      1
 15195  10413  10416      1
 15196  10413  11609      1
 15197  10414  10416      1
 15198  10414  10418      1
 15199  10415  10524      1
 15200  10416  10417      1
 15201  10417  10523      1
 15202  10418  10419      1
 15203  10420  10421      1
 15204  10420  11617      1
 15205  10421  10422      1
 15206  10421  11623      1
 15207  10422  10423      1
 15208  10422  10425      1
 15209  10424  10425      1
 15210  10424  10426      1
 15211  10424  10530      1
 15212  10425  10427      1
 15213  10426  11623      1
 15214  10426  11734      1
 15215  10427  10428      1
 15216  10427  10430      1
 15217  10428  10533      1
 15218  10429  10431      1
 15219  10430  10431      1
 15220  10431  10432      1
 15221  10432  10433      1
 15222  10432  10435      1
 15223  10433  10434      1
 15224  10433  11627      1
 15225  10434  10436      1
 15226  10434  11747      1
 15227  10435  10436      1
 15228  10435  10437      1
 15229  10436  10538      1
 15230  10437  10438      1
 15231  10438  10439      1
 15232  10438  10441      1
 15233  10440  10441      1
 15234  10440  10542      1
 15235  10441  10444      1
 15236  10442  10443      1
 15237  10442  10444      1
 15238  10442  10445      1
 15239  10443  10446      1
 15240  10443  11637      1
 15241  10444  10447      1
 15242  10445  10547      1
 15243  10445  11638      1
 15244  10447  10448      1
 15245  10447  10449      1
 15246  10449  10450      1
 15247  10449  11645      1
 15248  10450  10451      1
 15249  10450  10551      1
 15250  10451  10553      1
 15251  10451  11646      1
 15252  10452  10453      1
 15253  10453  10455      1
 15254  10453  10456      1
 15255  10454  10456      1
 15256  10455  10457      1
 15257  10455  10554      1
 15258  10456  10458      1
 15259  10457  10459      1
 15260  10457  10558      1
 15261  10458  10459      1
 15262  10458  10460      1
 15263  10459  10462      1
 15264  10461  10465      1
 15265  10461  11665      1
 15266  10461  11666      1
 15267  10462  10463      1
 15268  10463  10466      1
 15269  10463  10560      1
 15270  10464  10466      1
 15271  10464  10563      1
 15272  10464  11666      1
 15273  10465  10467      1
 15274  10466  10467      1
 15275  10467  10468      1
 15276  10468  10469      1
 15277  10470  10471      1
 15278  10470  10568      1
 15279  10470  11674      1
 15280  10471  10472      1
 15281  10471  10473      1
 15282  10472  10474      1
 15283  10472  10572      1
 15284  10473  10475      1
 15285  10473  11676      1
 15286  10475  10477      1
 15287  10475  11680      1
 15288  10476  10575      1
 15289  10477  10478      1
 15290  10478  10480      1
 15291  10478  10481      1
 15292  10479  10480      1
 15293  10479  10482      1
 15294  10480  10483      1
 15295  10481  10484      1
 15296  10481  11685      1
 15297  10483  10585      1
 15298  10484  10486      1
 15299  10484  11689      1
 15300  10485  10486      1
 15301  10485  10585      1
 15302  10485  10591      1
 15303  10486  10487      1
 15304  10487  10488      1
 15305  10487  10489      1
 15306  10488  10491      1
 15307  10489  10490      1
 15308  10489  10492      1
 15309  10490  10493      1
 15310  10490  10591      1
 15311  10491  10494      1
 15312  10491  11695      1
 15313  10493  10494      1
 15314  10493  10595      1
 15315  10494  11697      1
 15316  10495  10496      1
 15317  10496  10502      1
 15318  10497  10498      1
 15319  10497  10499      1
 15320  10497  10600      1
 15321  10498  10500      1
 15322  10498  10501      1
 15323  10499  10503      1
 15324  10499  10601      1
 15325  10500  10502      1
 15326  10500  10504      1
 15327  10501  10603      1
 15328  10502  10506      1
 15329  10503  10504      1
 15330  10503  11703      1
 15331  10504  10505      1
 15332  10505  10508      1
 15333  10505  11705      1
 15334  10506  10507      1
 15335  10506  10509      1
 15336  10508  10509      1
 15337  10509  10511      1
 15338  10510  10610      1
 15339  10510  11707      1
 15340  10512  10513      1
 15341  10514  10516      1
 15342  10514  11712      1
 15343  10514  11716      1
 15344  10515  10516      1
 15345  10515  10517      1
 15346  10515  10619      1
 15347  10516  10519      1
 15348  10517  10520      1
 15349  10517  10626      1
 15350  10518  10520      1
 15351  10519  10521      1
 15352  10519  11722      1
 15353  10520  10521      1
 15354  10521  10522      1
 15355  10522  10523      1
 15356  10522  10526      1
 15357  10522  11724      1
 15358  10523  10524      1
 15359  10524  10527      1
 15360  10525  10526      1
 15361  10525  10527      1
 15362  10526  10528      1
 15363  10526  10631      1
 15364  10528  10529      1
 15365  10528  10531      1
 15366  10529  10530      1
 15367  10529  10532      1
 15368  10530  10533      1
 15369  10531  10534      1
 15370  10531  10636      1
 15371  10532  11731      1
 15372  10532  11734      1
 15373  10533  10534      1
 15374  10535  10536      1
 15375  10535  10537      1
 15376  10535  11745      1
 15377  10536  10539      1
 15378  10536  10648      1
 15379  10537  10538      1
 15380  10537  11747      1
 15381  10538  10541      1
 15382  10539  10540      1
 15383  10539  10541      1
 15384  10540  10651      1
 15385  10541  10542      1
 15386  10542  10544      1
 15387  10543  10544      1
 15388  10543  10545      1
 15389  10543  10546      1
 15390  10544  10548      1
 15391  10544  10549      1
 15392  10545  10547      1
 15393  10545  11756      1
 15394  10546  10550      1
 15395  10546  10657      1
 15396  10547  10549      1
 15397  10548  10550      1
 15398  10549  10551      1
 15399  10550  10661      1
 15400  10551  10552      1
 15401  10553  10554      1
 15402  10553  11653      1
 15403  10554  10555      1
 15404  10555  10556      1
 15405  10555  10558      1
 15406  10556  11765      1
 15407  10556  11768      1
 15408  10557  10559      1
 15409  10558  10560      1
 15410  10559  10561      1
 15411  10560  10564      1
 15412  10561  10562      1
 15413  10561  10564      1
 15414  10562  10565      1
 15415  10562  10679      1
 15416  10563  10566      1
 15417  10563  11768      1
 15418  10564  10566      1
 15419  10565  10567      1
 15420  10565  11876      1
 15421  10566  10568      1
 15422  10567  10569      1
 15423  10567  11775      1
 15424  10568  10570      1
 15425  10569  10571      1
 15426  10569  10686      1
 15427  10570  10572      1
 15428  10570  10573      1
 15429  10571  10573      1
 15430  10571  10574      1
 15431  10572  10575      1
 15432  10573  10576      1
 15433  10574  10690      1
 15434  10574  11778      1
 15435  10575  10576      1
 15436  10576  10577      1
 15437  10577  10578      1
 15438  10578  10580      1
 15439  10578  10583      1
 15440  10579  10580      1
 15441  10579  10581      1
 15442  10579  10693      1
 15443  10580  10584      1
 15444  10581  10582      1
 15445  10581  11787      1
 15446  10582  10584      1
 15447  10582  11790      1
 15448  10583  10586      1
 15449  10584  10585      1
 15450  10584  10587      1
 15451  10586  10588      1
 15452  10587  10588      1
 15453  10587  10589      1
 15454  10588  10702      1
 15455  10589  10593      1
 15456  10589  11794      1
 15457  10590  10594      1
 15458  10590  10703      1
 15459  10590  11796      1
 15460  10591  10592      1
 15461  10593  10594      1
 15462  10593  11800      1
 15463  10594  10596      1
 15464  10595  10601      1
 15465  10595  11800      1
 15466  10596  10599      1
 15467  10596  11802      1
 15468  10597  10598      1
 15469  10598  10600      1
 15470  10598  10602      1
 15471  10599  10602      1
 15472  10599  11809      1
 15473  10600  10603      1
 15474  10601  11804      1
 15475  10602  10604      1
 15476  10604  10605      1
 15477  10604  10607      1
 15478  10606  10607      1
 15479  10606  11809      1
 15480  10606  11811      1
 15481  10607  10717      1
 15482  10608  10609      1
 15483  10609  10612      1
 15484  10609  10613      1
 15485  10610  10613      1
 15486  10610  11814      1
 15487  10611  10612      1
 15488  10611  11811      1
 15489  10611  11814      1
 15490  10612  10717      1
 15491  10614  10616      1
 15492  10614  10617      1
 15493  10615  10719      1
 15494  10616  10619      1
 15495  10617  10618      1
 15496  10618  10620      1
 15497  10618  10621      1
 15498  10619  10621      1
 15499  10620  11820      1
 15500  10621  10622      1
 15501  10622  10623      1
 15502  10622  10624      1
 15503  10622  10628      1
 15504  10623  10625      1
 15505  10624  10627      1
 15506  10625  10629      1
 15507  10626  10627      1
 15508  10626  10630      1
 15509  10628  10629      1
 15510  10628  10630      1
 15511  10629  11825      1
 15512  10630  10631      1
 15513  10631  10633      1
 15514  10632  10633      1
 15515  10632  11825      1
 15516  10632  11831      1
 15517  10633  10635      1
 15518  10634  10638      1
 15519  10635  10636      1
 15520  10635  10639      1
 15521  10636  10640      1
 15522  10637  10641      1
 15523  10637  11831      1
 15524  10637  11834      1
 15525  10638  10642      1
 15526  10639  10644      1
 15527  10639  11735      1
 15528  10640  10643      1
 15529  10641  10642      1
 15530  10641  10644      1
 15531  10642  10643      1
 15532  10644  10645      1
 15533  10645  10648      1
 15534  10645  11743      1
 15535  10646  10647      1
 15536  10647  10650      1
 15537  10648  10649      1
 15538  10649  10650      1
 15539  10649  10651      1
 15540  10650  10652      1
 15541  10652  10653      1
 15542  10652  10654      1
 15543  10654  10658      1
 15544  10655  10763      1
 15545  10656  10657      1
 15546  10656  11848      1
 15547  10656  11852      1
 15548  10657  10658      1
 15549  10658  10660      1
 15550  10660  10661      1
 15551  10660  10662      1
 15552  10661  10665      1
 15553  10662  10664      1
 15554  10663  10666      1
 15555  10663  11863      1
 15556  10664  10667      1
 15557  10665  10670      1
 15558  10666  10667      1
 15559  10666  10668      1
 15560  10668  10669      1
 15561  10668  10670      1
 15562  10669  11865      1
 15563  10670  10672      1
 15564  10671  10673      1
 15565  10672  10674      1
 15566  10672  10676      1
 15567  10673  10674      1
 15568  10674  10675      1
 15569  10675  10677      1
 15570  10675  11868      1
 15571  10676  10678      1
 15572  10677  10678      1
 15573  10677  11873      1
 15574  10678  10679      1
 15575  10679  10680      1
 15576  10681  10685      1
 15577  10682  10683      1
 15578  10682  10684      1
 15579  10684  10685      1
 15580  10684  10686      1
 15581  10685  11880      1
 15582  10686  10687      1
 15583  10687  10688      1
 15584  10687  10689      1
 15585  10688  10690      1
 15586  10688  11882      1
 15587  10689  10692      1
 15588  10690  10693      1
 15589  10690  11886      1
 15590  10691  10692      1
 15591  10691  10694      1
 15592  10692  10695      1
 15593  10693  10695      1
 15594  10694  10696      1
 15595  10695  10696      1
 15596  10696  10698      1
 15597  10697  10699      1
 15598  10698  10699      1
 15599  10698  10700      1
 15600  10700  11894      1
 15601  10701  10702      1
 15602  10701  10704      1
 15603  10702  10703      1
 15604  10703  10705      1
 15605  10704  10706      1
 15606  10705  10706      1
 15607  10705  11903      1
 15608  10706  10707      1
 15609  10707  10708      1
 15610  10707  10709      1
 15611  10709  10710      1
 15612  10709  10711      1
 15613  10710  10712      1
 15614  10710  11906      1
 15615  10711  10713      1
 15616  10711  10714      1
 15617  10712  10714      1
 15618  10712  11912      1
 15619  10714  10716      1
 15620  10716  10718      1
 15621  10716  10719      1
 15622  10717  10718      1
 15623  10720  10836      1
 15624  10721  10723      1
 15625  10722  10723      1
 15626  10722  11921      1
 15627  10723  10725      1
 15628  10724  10725      1
 15629  10726  10727      1
 15630  10726  10836      1
 15631  10726  10841      1
 15632  10727  11926      1
 15633  10727  12030      1
 15634  10728  10732      1
 15635  10728  11924      1
 15636  10729  10734      1
 15637  10730  10733      1
 15638  10730  10841      1
 15639  10730  10847      1
 15640  10731  10733      1
 15641  10731  11926      1
 15642  10731  11929      1
 15643  10732  11929      1
 15644  10733  10735      1
 15645  10734  10735      1
 15646  10735  10736      1
 15647  10736  10737      1
 15648  10737  10739      1
 15649  10737  11932      1
 15650  10738  10740      1
 15651  10738  10850      1
 15652  10739  10743      1
 15653  10739  11935      1
 15654  10740  10741      1
 15655  10740  10742      1
 15656  10741  10744      1
 15657  10742  10743      1
 15658  10742  10745      1
 15659  10743  10747      1
 15660  10745  10746      1
 15661  10745  10856      1
 15662  10747  10748      1
 15663  10747  10749      1
 15664  10748  10753      1
 15665  10749  10752      1
 15666  10749  11942      1
 15667  10750  10751      1
 15668  10750  10752      1
 15669  10750  10754      1
 15670  10752  10756      1
 15671  10753  10757      1
 15672  10754  10755      1
 15673  10754  10757      1
 15674  10756  10758      1
 15675  10756  10759      1
 15676  10757  10761      1
 15677  10758  10872      1
 15678  10758  11945      1
 15679  10759  10760      1
 15680  10759  10873      1
 15681  10761  10762      1
 15682  10762  11951      1
 15683  10764  10767      1
 15684  10764  11951      1
 15685  10765  10768      1
 15686  10765  10879      1
 15687  10766  10769      1
 15688  10766  10880      1
 15689  10766  11957      1
 15690  10767  11961      1
 15691  10768  10769      1
 15692  10768  10770      1
 15693  10769  10772      1
 15694  10770  10771      1
 15695  10771  10772      1
 15696  10771  10773      1
 15697  10772  11967      1
 15698  10774  10775      1
 15699  10774  10779      1
 15700  10774  10888      1
 15701  10775  10776      1
 15702  10775  10777      1
 15703  10776  10778      1
 15704  10776  10781      1
 15705  10777  10782      1
 15706  10777  11970      1
 15707  10778  10779      1
 15708  10780  10781      1
 15709  10782  10783      1
 15710  10782  12088      1
 15711  10783  10784      1
 15712  10783  10894      1
 15713  10784  10787      1
 15714  10784  10897      1
 15715  10785  10786      1
 15716  10785  10894      1
 15717  10785  10899      1
 15718  10786  10788      1
 15719  10787  10788      1
 15720  10787  10790      1
 15721  10788  10791      1
 15722  10789  10792      1
 15723  10790  10793      1
 15724  10790  11983      1
 15725  10791  10792      1
 15726  10791  10793      1
 15727  10793  10794      1
 15728  10794  10796      1
 15729  10794  11988      1
 15730  10795  10904      1
 15731  10795  10908      1
 15732  10796  10797      1
 15733  10797  10798      1
 15734  10797  10802      1
 15735  10798  10799      1
 15736  10798  11992      1
 15737  10799  10800      1
 15738  10799  10801      1
 15739  10800  10908      1
 15740  10800  10910      1
 15741  10800  10914      1
 15742  10801  10804      1
 15743  10802  10805      1
 15744  10803  10804      1
 15745  10804  10806      1
 15746  10805  10807      1
 15747  10806  10809      1
 15748  10806  10810      1
 15749  10807  10810      1
 15750  10807  11998      1
 15751  10808  10915      1
 15752  10808  10920      1
 15753  10808  11998      1
 15754  10810  10811      1
 15755  10811  10812      1
 15756  10811  10813      1
 15757  10812  10815      1
 15758  10813  12004      1
 15759  10814  10816      1
 15760  10814  10923      1
 15761  10814  10929      1
 15762  10815  10816      1
 15763  10816  10817      1
 15764  10817  10824      1
 15765  10817  10933      1
 15766  10818  10819      1
 15767  10818  10822      1
 15768  10819  10821      1
 15769  10820  10823      1
 15770  10821  10824      1
 15771  10821  12012      1
 15772  10822  10823      1
 15773  10823  10825      1
 15774  10824  10825      1
 15775  10824  12016      1
 15776  10825  10826      1
 15777  10826  10828      1
 15778  10826  10935      1
 15779  10827  10940      1
 15780  10827  12016      1
 15781  10827  12021      1
 15782  10828  10829      1
 15783  10828  10831      1
 15784  10829  10832      1
 15785  10830  12021      1
 15786  10833  10834      1
 15787  10833  10945      1
 15788  10836  12027      1
 15789  10837  10838      1
 15790  10837  12027      1
 15791  10837  12029      1
 15792  10838  10839      1
 15793  10838  10840      1
 15794  10839  10843      1
 15795  10839  10951      1
 15796  10840  10841      1
 15797  10840  10842      1
 15798  10842  10844      1
 15799  10842  10846      1
 15800  10843  10844      1
 15801  10843  10956      1
 15802  10844  10845      1
 15803  10846  10847      1
 15804  10846  10848      1
 15805  10847  10850      1
 15806  10848  10849      1
 15807  10848  10851      1
 15808  10849  10852      1
 15809  10850  10851      1
 15810  10851  10853      1
 15811  10852  10854      1
 15812  10852  10961      1
 15813  10853  10854      1
 15814  10853  10856      1
 15815  10854  10857      1
 15816  10854  10858      1
 15817  10855  10857      1
 15818  10855  10969      1
 15819  10855  12045      1
 15820  10856  10859      1
 15821  10857  10859      1
 15822  10857  10860      1
 15823  10858  10862      1
 15824  10859  10861      1
 15825  10860  10863      1
 15826  10860  10971      1
 15827  10861  10864      1
 15828  10861  12051      1
 15829  10862  10863      1
 15830  10862  10973      1
 15831  10863  10865      1
 15832  10864  10866      1
 15833  10864  12056      1
 15834  10865  10866      1
 15835  10865  10867      1
 15836  10866  10868      1
 15837  10867  10869      1
 15838  10868  10870      1
 15839  10868  10871      1
 15840  10869  10870      1
 15841  10870  10874      1
 15842  10871  10875      1
 15843  10871  12060      1
 15844  10872  10873      1
 15845  10872  12065      1
 15846  10873  10878      1
 15847  10874  10877      1
 15848  10874  10983      1
 15849  10875  10877      1
 15850  10875  12068      1
 15851  10876  10879      1
 15852  10877  10987      1
 15853  10878  10879      1
 15854  10878  10880      1
 15855  10880  12068      1
 15856  10881  10883      1
 15857  10881  10995      1
 15858  10882  10883      1
 15859  10882  10884      1
 15860  10883  10885      1
 15861  10884  10886      1
 15862  10885  10886      1
 15863  10885  10887      1
 15864  10886  10888      1
 15865  10887  10889      1
 15866  10888  10890      1
 15867  10889  10890      1
 15868  10889  10891      1
 15869  10890  10892      1
 15870  10891  10893      1
 15871  10891  11006      1
 15872  10892  10893      1
 15873  10892  10894      1
 15874  10893  10895      1
 15875  10895  10896      1
 15876  10895  10898      1
 15877  10896  11010      1
 15878  10896  11014      1
 15879  10897  10900      1
 15880  10897  12093      1
 15881  10898  10899      1
 15882  10899  10901      1
 15883  10900  10903      1
 15884  10900  12095      1
 15885  10901  10903      1
 15886  10901  10904      1
 15887  10902  11014      1
 15888  10903  10905      1
 15889  10905  10906      1
 15890  10905  10908      1
 15891  10906  11991      1
 15892  10906  12095      1
 15893  10907  11020      1
 15894  10907  11024      1
 15895  10907  12098      1
 15896  10909  10910      1
 15897  10909  10912      1
 15898  10909  12101      1
 15899  10910  10915      1
 15900  10910  11991      1
 15901  10911  10912      1
 15902  10911  11024      1
 15903  10911  11027      1
 15904  10912  10913      1
 15905  10913  10914      1
 15906  10913  10917      1
 15907  10914  10916      1
 15908  10915  12107      1
 15909  10917  10918      1
 15910  10918  10919      1
 15911  10918  11027      1
 15912  10919  10924      1
 15913  10919  11032      1
 15914  10920  10921      1
 15915  10920  10923      1
 15916  10921  10925      1
 15917  10921  12110      1
 15918  10922  10926      1
 15919  10923  10926      1
 15920  10924  11038      1
 15921  10925  10927      1
 15922  10925  10928      1
 15923  10926  10928      1
 15924  10927  11034      1
 15925  10927  12118      1
 15926  10928  10930      1
 15927  10929  10933      1
 15928  10929  12114      1
 15929  10930  10931      1
 15930  10930  10934      1
 15931  10931  11038      1
 15932  10931  11043      1
 15933  10932  10934      1
 15934  10932  12118      1
 15935  10932  12122      1
 15936  10933  12122      1
 15937  10934  11046      1
 15938  10935  10937      1
 15939  10936  10938      1
 15940  10936  12016      1
 15941  10936  12126      1
 15942  10937  10941      1
 15943  10938  10939      1
 15944  10938  10940      1
 15945  10939  10942      1
 15946  10939  10943      1
 15947  10941  10943      1
 15948  10942  11052      1
 15949  10942  12133      1
 15950  10944  10946      1
 15951  10944  10947      1
 15952  10945  10946      1
 15953  10947  11056      1
 15954  10947  11062      1
 15955  10948  10949      1
 15956  10948  10952      1
 15957  10948  12139      1
 15958  10949  10950      1
 15959  10949  11066      1
 15960  10950  10953      1
 15961  10950  11062      1
 15962  10951  10952      1
 15963  10951  12140      1
 15964  10952  10954      1
 15965  10953  10954      1
 15966  10953  10955      1
 15967  10954  10956      1
 15968  10955  10957      1
 15969  10956  10958      1
 15970  10957  10959      1
 15971  10957  11075      1
 15972  10958  10959      1
 15973  10958  10961      1
 15974  10959  10960      1
 15975  10960  10962      1
 15976  10960  12149      1
 15977  10961  10963      1
 15978  10962  10964      1
 15979  10962  12266      1
 15980  10963  10964      1
 15981  10963  10965      1
 15982  10964  10966      1
 15983  10965  10967      1
 15984  10966  10968      1
 15985  10966  10970      1
 15986  10967  10968      1
 15987  10968  11088      1
 15988  10969  10971      1
 15989  10969  12160      1
 15990  10970  10972      1
 15991  10970  12160      1
 15992  10971  10974      1
 15993  10972  11090      1
 15994  10972  12161      1
 15995  10973  10975      1
 15996  10974  10975      1
 15997  10974  10976      1
 15998  10975  10977      1
 15999  10976  10978      1
 16000  10976  12163      1
 16001  10977  10979      1
 16002  10978  10979      1
 16003  10978  10981      1
 16004  10979  10980      1
 16005  10980  10982      1
 16006  10980  11098      1
 16007  10981  12168      1
 16008  10982  10984      1
 16009  10982  11104      1
 16010  10983  10985      1
 16011  10984  10985      1
 16012  10984  10986      1
 16013  10986  10987      1
 16014  10986  10988      1
 16015  10987  12175      1
 16016  10988  10989      1
 16017  10988  12173      1
 16018  10989  11104      1
 16019  10989  11109      1
 16020  10990  10991      1
 16021  10990  11104      1
 16022  10991  10992      1
 16023  10992  10993      1
 16024  10992  10996      1
 16025  10993  10994      1
 16026  10993  10995      1
 16027  10994  10997      1
 16028  10994  12177      1
 16029  10995  10998      1
 16030  10996  10999      1
 16031  10996  11112      1
 16032  10997  11001      1
 16033  10997  12081      1
 16034  10998  11000      1
 16035  10999  11000      1
 16036  10999  11003      1
 16037  11000  11001      1
 16038  11001  11002      1
 16039  11002  11004      1
 16040  11002  12185      1
 16041  11003  11004      1
 16042  11003  11119      1
 16043  11004  12188      1
 16044  11005  11007      1
 16045  11006  11008      1
 16046  11007  11008      1
 16047  11007  11009      1
 16048  11008  11010      1
 16049  11009  11012      1
 16050  11009  11126      1
 16051  11010  11013      1
 16052  11011  11012      1
 16053  11011  11013      1
 16054  11011  12194      1
 16055  11012  11128      1
 16056  11013  12198      1
 16057  11014  11016      1
 16058  11015  11017      1
 16059  11016  11017      1
 16060  11016  11018      1
 16061  11017  11019      1
 16062  11018  11020      1
 16063  11018  11021      1
 16064  11019  11021      1
 16065  11019  11138      1
 16066  11020  12200      1
 16067  11021  11022      1
 16068  11022  11023      1
 16069  11022  11025      1
 16070  11023  11026      1
 16071  11023  11140      1
 16072  11023  12202      1
 16073  11024  11025      1
 16074  11025  12207      1
 16075  11026  11147      1
 16076  11026  12213      1
 16077  11027  11028      1
 16078  11028  11029      1
 16079  11028  11032      1
 16080  11029  11030      1
 16081  11029  11031      1
 16082  11030  12111      1
 16083  11030  12211      1
 16084  11031  11033      1
 16085  11031  12213      1
 16086  11033  11035      1
 16087  11033  12218      1
 16088  11034  12111      1
 16089  11034  12222      1
 16090  11035  11039      1
 16091  11035  12222      1
 16092  11036  11040      1
 16093  11036  11154      1
 16094  11037  11038      1
 16095  11037  11041      1
 16096  11039  11159      1
 16097  11039  12223      1
 16098  11040  11041      1
 16099  11040  11159      1
 16100  11041  11042      1
 16101  11042  11043      1
 16102  11042  11045      1
 16103  11043  11046      1
 16104  11044  11045      1
 16105  11044  11159      1
 16106  11044  11163      1
 16107  11045  11047      1
 16108  11046  11049      1
 16109  11047  11048      1
 16110  11047  11049      1
 16111  11048  11163      1
 16112  11048  12236      1
 16113  11049  12234      1
 16114  11050  11168      1
 16115  11051  11052      1
 16116  11051  11053      1
 16117  11051  12239      1
 16118  11053  12242      1
 16119  11055  11057      1
 16120  11055  11058      1
 16121  11055  11173      1
 16122  11056  11058      1
 16123  11057  11060      1
 16124  11057  11174      1
 16125  11058  11061      1
 16126  11059  11061      1
 16127  11059  11175      1
 16128  11060  11063      1
 16129  11060  12250      1
 16130  11061  11065      1
 16131  11062  11064      1
 16132  11063  11065      1
 16133  11063  11067      1
 16134  11065  11068      1
 16135  11066  11067      1
 16136  11066  12252      1
 16137  11067  11070      1
 16138  11068  11069      1
 16139  11068  11071      1
 16140  11069  11073      1
 16141  11070  11071      1
 16142  11070  11072      1
 16143  11071  11074      1
 16144  11072  11076      1
 16145  11072  12258      1
 16146  11073  11074      1
 16147  11073  11188      1
 16148  11074  11077      1
 16149  11075  11079      1
 16150  11076  11077      1
 16151  11076  11078      1
 16152  11077  11080      1
 16153  11078  12264      1
 16154  11078  12266      1
 16155  11079  11080      1
 16156  11080  11083      1
 16157  11081  11082      1
 16158  11081  11083      1
 16159  11081  11190      1
 16160  11082  11084      1
 16161  11082  12265      1
 16162  11083  11085      1
 16163  11084  11086      1
 16164  11084  12271      1
 16165  11085  11086      1
 16166  11085  11087      1
 16167  11086  11089      1
 16168  11087  11092      1
 16169  11088  11090      1
 16170  11088  11091      1
 16171  11089  11093      1
 16172  11089  12275      1
 16173  11090  11093      1
 16174  11091  11094      1
 16175  11092  11095      1
 16176  11093  11094      1
 16177  11094  11095      1
 16178  11095  11096      1
 16179  11096  11097      1
 16180  11096  11100      1
 16181  11097  11099      1
 16182  11097  11200      1
 16183  11099  11102      1
 16184  11099  12287      1
 16185  11100  11101      1
 16186  11100  11103      1
 16187  11100  11202      1
 16188  11101  11105      1
 16189  11102  11103      1
 16190  11102  11106      1
 16191  11103  11107      1
 16192  11105  11108      1
 16193  11106  11206      1
 16194  11106  12292      1
 16195  11107  11108      1
 16196  11107  11208      1
 16197  11109  11110      1
 16198  11109  12176      1
 16199  11110  11111      1
 16200  11110  12298      1
 16201  11111  11112      1
 16202  11111  11114      1
 16203  11112  11116      1
 16204  11113  11116      1
 16205  11113  11117      1
 16206  11114  11115      1
 16207  11114  11117      1
 16208  11115  11212      1
 16209  11115  12301      1
 16210  11117  11214      1
 16211  11118  11119      1
 16212  11119  11121      1
 16213  11120  11121      1
 16214  11120  12188      1
 16215  11120  12309      1
 16216  11121  11122      1
 16217  11122  11123      1
 16218  11122  11124      1
 16219  11123  12311      1
 16220  11124  11125      1
 16221  11125  11224      1
 16222  11126  11127      1
 16223  11127  11129      1
 16224  11128  11129      1
 16225  11128  11130      1
 16226  11129  11132      1
 16227  11130  11131      1
 16228  11130  12321      1
 16229  11131  11133      1
 16230  11131  12322      1
 16231  11131  12329      1
 16232  11132  11133      1
 16233  11132  11134      1
 16234  11133  11135      1
 16235  11134  11136      1
 16236  11135  11137      1
 16237  11135  11230      1
 16238  11136  11137      1
 16239  11137  11237      1
 16240  11138  11139      1
 16241  11138  11140      1
 16242  11139  11141      1
 16243  11139  11142      1
 16244  11140  11146      1
 16245  11140  12332      1
 16246  11141  11143      1
 16247  11141  11144      1
 16248  11143  11239      1
 16249  11144  11145      1
 16250  11144  11146      1
 16251  11145  11238      1
 16252  11145  12338      1
 16253  11146  11147      1
 16254  11147  12343      1
 16255  11148  11150      1
 16256  11148  11247      1
 16257  11148  12343      1
 16258  11149  11151      1
 16259  11149  11249      1
 16260  11150  11151      1
 16261  11150  11153      1
 16262  11151  11152      1
 16263  11152  11154      1
 16264  11153  11155      1
 16265  11153  12350      1
 16266  11154  11157      1
 16267  11155  11156      1
 16268  11155  12354      1
 16269  11156  11158      1
 16270  11156  11159      1
 16271  11157  11158      1
 16272  11158  11160      1
 16273  11160  11162      1
 16274  11160  11256      1
 16275  11161  11164      1
 16276  11162  11164      1
 16277  11162  11165      1
 16278  11163  11166      1
 16279  11164  11167      1
 16280  11165  11166      1
 16281  11165  11169      1
 16282  11166  12363      1
 16283  11167  11168      1
 16284  11167  11170      1
 16285  11169  11170      1
 16286  11169  11268      1
 16287  11170  11172      1
 16288  11171  11172      1
 16289  11171  12242      1
 16290  11171  12363      1
 16291  11173  11175      1
 16292  11175  11177      1
 16293  11176  11177      1
 16294  11176  11178      1
 16295  11176  11276      1
 16296  11177  11180      1
 16297  11178  11179      1
 16298  11178  11279      1
 16299  11179  11181      1
 16300  11179  11182      1
 16301  11180  11182      1
 16302  11181  12372      1
 16303  11181  12379      1
 16304  11182  11183      1
 16305  11183  11184      1
 16306  11183  11186      1
 16307  11185  11186      1
 16308  11185  12379      1
 16309  11185  12383      1
 16310  11186  11187      1
 16311  11187  11189      1
 16312  11187  11191      1
 16313  11188  11190      1
 16314  11189  11192      1
 16315  11189  11288      1
 16316  11189  12388      1
 16317  11190  11191      1
 16318  11191  11193      1
 16319  11192  11193      1
 16320  11192  11295      1
 16321  11193  11194      1
 16322  11195  11197      1
 16323  11195  11300      1
 16324  11195  11302      1
 16325  11196  11197      1
 16326  11196  11198      1
 16327  11196  12401      1
 16328  11197  11199      1
 16329  11198  11200      1
 16330  11199  11201      1
 16331  11199  12405      1
 16332  11200  12410      1
 16333  11201  11203      1
 16334  11201  11307      1
 16335  11203  11204      1
 16336  11204  11205      1
 16337  11205  11209      1
 16338  11206  11207      1
 16339  11206  11208      1
 16340  11207  12417      1
 16341  11207  12422      1
 16342  11208  11209      1
 16343  11209  11210      1
 16344  11210  11211      1
 16345  11210  11213      1
 16346  11211  11215      1
 16347  11211  11319      1
 16348  11212  11213      1
 16349  11212  12426      1
 16350  11213  11214      1
 16351  11216  11217      1
 16352  11216  11218      1
 16353  11216  11323      1
 16354  11217  11219      1
 16355  11217  12428      1
 16356  11218  11220      1
 16357  11218  11325      1
 16358  11219  11221      1
 16359  11219  12436      1
 16360  11220  11221      1
 16361  11221  11222      1
 16362  11222  11226      1
 16363  11222  11227      1
 16364  11223  11225      1
 16365  11223  11227      1
 16366  11223  12436      1
 16367  11224  11226      1
 16368  11225  11331      1
 16369  11225  12533      1
 16370  11226  11228      1
 16371  11227  11229      1
 16372  11228  11229      1
 16373  11228  11232      1
 16374  11229  11231      1
 16375  11230  12323      1
 16376  11230  12449      1
 16377  11231  11233      1
 16378  11231  11234      1
 16379  11232  11234      1
 16380  11233  12445      1
 16381  11233  12450      1
 16382  11234  11235      1
 16383  11235  11338      1
 16384  11236  11238      1
 16385  11236  12449      1
 16386  11236  12451      1
 16387  11237  11238      1
 16388  11237  11239      1
 16389  11238  11240      1
 16390  11240  11242      1
 16391  11240  12456      1
 16392  11241  11242      1
 16393  11241  11244      1
 16394  11242  11243      1
 16395  11243  11245      1
 16396  11243  11346      1
 16397  11244  11246      1
 16398  11245  11246      1
 16399  11245  11352      1
 16400  11246  11250      1
 16401  11247  11248      1
 16402  11247  11249      1
 16403  11248  12462      1
 16404  11248  12465      1
 16405  11249  11250      1
 16406  11250  11251      1
 16407  11251  11252      1
 16408  11252  11354      1
 16409  11253  11254      1
 16410  11254  11258      1
 16411  11254  11259      1
 16412  11255  11257      1
 16413  11255  11260      1
 16414  11255  12472      1
 16415  11256  11257      1
 16416  11256  11258      1
 16417  11257  12473      1
 16418  11258  11262      1
 16419  11259  11261      1
 16420  11259  11363      1
 16421  11260  11261      1
 16422  11260  11263      1
 16423  11261  11365      1
 16424  11262  11264      1
 16425  11263  11264      1
 16426  11263  12475      1
 16427  11264  11265      1
 16428  11265  11266      1
 16429  11265  11268      1
 16430  11266  11270      1
 16431  11267  11268      1
 16432  11267  12475      1
 16433  11267  12477      1
 16434  11269  11270      1
 16435  11269  11373      1
 16436  11270  11272      1
 16437  11271  11273      1
 16438  11271  11374      1
 16439  11271  12478      1
 16440  11272  11273      1
 16441  11274  11275      1
 16442  11274  11380      1
 16443  11275  11277      1
 16444  11275  12484      1
 16445  11276  11278      1
 16446  11277  11383      1
 16447  11277  12490      1
 16448  11278  11279      1
 16449  11278  11281      1
 16450  11279  11280      1
 16451  11280  11282      1
 16452  11280  12486      1
 16453  11281  11283      1
 16454  11282  11284      1
 16455  11282  11286      1
 16456  11283  11285      1
 16457  11283  11287      1
 16458  11284  12490      1
 16459  11284  12494      1
 16460  11285  11289      1
 16461  11285  11389      1
 16462  11286  11288      1
 16463  11286  12381      1
 16464  11287  11290      1
 16465  11288  11290      1
 16466  11289  11291      1
 16467  11289  11396      1
 16468  11290  11291      1
 16469  11291  11293      1
 16470  11292  11293      1
 16471  11292  12494      1
 16472  11292  12599      1
 16473  11293  11294      1
 16474  11294  11295      1
 16475  11294  11296      1
 16476  11295  11297      1
 16477  11296  11298      1
 16478  11296  12501      1
 16479  11297  11298      1
 16480  11297  11300      1
 16481  11298  11301      1
 16482  11299  11300      1
 16483  11301  11302      1
 16484  11301  12505      1
 16485  11302  11304      1
 16486  11303  11411      1
 16487  11304  11305      1
 16488  11305  11306      1
 16489  11306  11307      1
 16490  11306  11309      1
 16491  11307  11308      1
 16492  11308  12509      1
 16493  11308  12511      1
 16494  11309  11310      1
 16495  11309  11311      1
 16496  11311  11312      1
 16497  11311  11421      1
 16498  11312  11314      1
 16499  11312  11315      1
 16500  11313  11314      1
 16501  11313  11316      1
 16502  11314  11317      1
 16503  11315  11318      1
 16504  11315  11423      1
 16505  11316  11319      1
 16506  11317  11320      1
 16507  11317  11321      1
 16508  11318  11320      1
 16509  11318  12632      1
 16510  11319  11321      1
 16511  11320  11322      1
 16512  11321  11323      1
 16513  11322  11324      1
 16514  11322  12521      1
 16515  11323  11324      1
 16516  11324  12524      1
 16517  11325  11326      1
 16518  11326  11329      1
 16519  11327  11330      1
 16520  11327  11435      1
 16521  11327  11440      1
 16522  11328  11331      1
 16523  11328  12524      1
 16524  11329  11332      1
 16525  11330  11333      1
 16526  11330  12529      1
 16527  11331  11332      1
 16528  11332  11334      1
 16529  11333  11335      1
 16530  11333  11443      1
 16531  11334  11336      1
 16532  11334  11337      1
 16533  11335  11337      1
 16534  11335  12535      1
 16535  11336  11338      1
 16536  11337  11339      1
 16537  11338  11339      1
 16538  11339  11340      1
 16539  11340  11341      1
 16540  11340  11344      1
 16541  11341  11342      1
 16542  11341  11343      1
 16543  11342  11455      1
 16544  11343  11345      1
 16545  11344  11346      1
 16546  11344  12545      1
 16547  11345  11346      1
 16548  11347  11348      1
 16549  11347  11353      1
 16550  11348  11349      1
 16551  11348  11353      1
 16552  11349  11350      1
 16553  11349  11351      1
 16554  11350  11466      1
 16555  11350  12550      1
 16556  11351  11352      1
 16557  11351  12552      1
 16558  11352  11354      1
 16559  11353  11355      1
 16560  11354  11356      1
 16561  11355  11357      1
 16562  11355  11467      1
 16563  11356  11358      1
 16564  11356  11359      1
 16565  11357  11358      1
 16566  11357  11360      1
 16567  11359  11362      1
 16568  11359  12560      1
 16569  11360  11362      1
 16570  11360  11473      1
 16571  11361  11362      1
 16572  11361  12559      1
 16573  11361  12564      1
 16574  11363  11364      1
 16575  11364  11366      1
 16576  11365  11368      1
 16577  11365  12566      1
 16578  11366  11367      1
 16579  11366  11368      1
 16580  11367  11481      1
 16581  11368  11369      1
 16582  11369  11370      1
 16583  11369  11484      1
 16584  11370  11371      1
 16585  11370  11377      1
 16586  11370  12573      1
 16587  11371  11374      1
 16588  11371  12575      1
 16589  11372  11373      1
 16590  11372  11376      1
 16591  11373  11374      1
 16592  11375  11376      1
 16593  11375  11492      1
 16594  11376  11377      1
 16595  11378  11381      1
 16596  11379  11380      1
 16597  11379  11384      1
 16598  11380  11383      1
 16599  11381  11382      1
 16600  11381  11498      1
 16601  11382  11385      1
 16602  11383  11386      1
 16603  11384  11385      1
 16604  11384  11388      1
 16605  11385  11386      1
 16606  11386  11387      1
 16607  11387  11390      1
 16608  11387  11498      1
 16609  11387  12584      1
 16610  11388  11389      1
 16611  11389  11391      1
 16612  11390  11392      1
 16613  11390  11504      1
 16614  11391  11393      1
 16615  11392  11397      1
 16616  11392  12590      1
 16617  11393  11395      1
 16618  11393  11396      1
 16619  11394  11395      1
 16620  11395  11398      1
 16621  11396  11399      1
 16622  11397  11398      1
 16623  11397  12598      1
 16624  11398  11509      1
 16625  11399  11400      1
 16626  11399  11401      1
 16627  11400  11403      1
 16628  11400  12599      1
 16629  11401  11402      1
 16630  11401  11404      1
 16631  11402  11405      1
 16632  11403  11406      1
 16633  11403  12605      1
 16634  11404  11406      1
 16635  11404  11407      1
 16636  11405  11407      1
 16637  11406  11408      1
 16638  11407  11411      1
 16639  11408  11410      1
 16640  11408  12608      1
 16641  11409  11410      1
 16642  11409  11412      1
 16643  11409  11519      1
 16644  11410  11522      1
 16645  11411  11413      1
 16646  11412  11413      1
 16647  11413  11414      1
 16648  11415  11416      1
 16649  11415  11528      1
 16650  11415  12616      1
 16651  11416  11417      1
 16652  11416  11419      1
 16653  11417  11418      1
 16654  11417  11532      1
 16655  11419  11420      1
 16656  11419  12620      1
 16657  11420  11422      1
 16658  11420  11423      1
 16659  11421  11422      1
 16660  11422  11424      1
 16661  11423  11425      1
 16662  11424  11427      1
 16663  11425  11428      1
 16664  11425  12626      1
 16665  11426  11427      1
 16666  11426  11429      1
 16667  11426  11540      1
 16668  11427  11430      1
 16669  11428  11429      1
 16670  11428  11431      1
 16671  11429  11433      1
 16672  11430  11432      1
 16673  11431  11434      1
 16674  11431  12632      1
 16675  11432  11433      1
 16676  11432  11548      1
 16677  11433  11436      1
 16678  11434  11435      1
 16679  11434  11437      1
 16680  11435  12521      1
 16681  11436  11437      1
 16682  11436  11438      1
 16683  11436  12735      1
 16684  11437  11439      1
 16685  11438  11441      1
 16686  11438  11552      1
 16687  11439  11440      1
 16688  11439  11441      1
 16689  11440  11443      1
 16690  11441  11442      1
 16691  11442  11444      1
 16692  11442  11445      1
 16693  11443  11446      1
 16694  11444  11555      1
 16695  11444  11561      1
 16696  11445  11446      1
 16697  11445  11448      1
 16698  11446  11447      1
 16699  11447  11449      1
 16700  11447  12646      1
 16701  11448  11449      1
 16702  11448  11561      1
 16703  11449  12649      1
 16704  11450  11452      1
 16705  11450  11568      1
 16706  11450  12649      1
 16707  11451  11453      1
 16708  11452  11456      1
 16709  11452  12652      1
 16710  11453  11454      1
 16711  11454  11455      1
 16712  11454  11456      1
 16713  11455  11457      1
 16714  11456  11459      1
 16715  11457  11458      1
 16716  11458  12548      1
 16717  11458  12655      1
 16718  11459  11460      1
 16719  11459  11570      1
 16720  11460  11461      1
 16721  11460  11575      1
 16722  11460  11579      1
 16723  11461  11463      1
 16724  11461  11464      1
 16725  11462  11464      1
 16726  11462  11575      1
 16727  11463  11466      1
 16728  11463  12661      1
 16729  11464  11465      1
 16730  11465  11467      1
 16731  11466  12666      1
 16732  11467  11470      1
 16733  11468  11469      1
 16734  11468  11472      1
 16735  11468  12667      1
 16736  11469  11470      1
 16737  11469  11471      1
 16738  11470  11473      1
 16739  11471  11582      1
 16740  11472  11582      1
 16741  11472  11584      1
 16742  11473  11474      1
 16743  11474  11475      1
 16744  11474  11477      1
 16745  11475  11479      1
 16746  11475  12564      1
 16747  11476  11477      1
 16748  11476  11478      1
 16749  11477  11480      1
 16750  11477  11481      1
 16751  11478  11483      1
 16752  11479  11480      1
 16753  11479  12677      1
 16754  11480  11482      1
 16755  11481  11484      1
 16756  11482  11483      1
 16757  11482  11590      1
 16758  11483  11485      1
 16759  11484  11486      1
 16760  11485  11487      1
 16761  11486  11488      1
 16762  11486  11489      1
 16763  11487  11489      1
 16764  11487  11490      1
 16765  11488  12687      1
 16766  11489  11491      1
 16767  11493  11597      1
 16768  11494  11495      1
 16769  11494  11496      1
 16770  11495  11497      1
 16771  11496  11499      1
 16772  11496  11500      1
 16773  11496  12692      1
 16774  11497  11501      1
 16775  11497  11602      1
 16776  11498  11499      1
 16777  11499  12696      1
 16778  11500  11502      1
 16779  11500  12697      1
 16780  11501  11502      1
 16781  11501  11503      1
 16782  11502  11611      1
 16783  11503  11505      1
 16784  11504  11506      1
 16785  11504  12699      1
 16786  11505  11614      1
 16787  11506  11507      1
 16788  11506  12702      1
 16789  11507  11509      1
 16790  11507  11511      1
 16791  11508  11511      1
 16792  11508  12702      1
 16793  11508  12704      1
 16794  11509  11510      1
 16795  11511  11512      1
 16796  11512  11514      1
 16797  11512  11515      1
 16798  11513  11515      1
 16799  11513  11516      1
 16800  11514  11518      1
 16801  11514  11620      1
 16802  11515  11517      1
 16803  11516  11519      1
 16804  11517  11519      1
 16805  11517  11520      1
 16806  11518  11520      1
 16807  11518  11625      1
 16808  11520  11521      1
 16809  11521  11522      1
 16810  11521  12709      1
 16811  11522  11528      1
 16812  11523  11524      1
 16813  11523  11526      1
 16814  11525  11527      1
 16815  11525  11625      1
 16816  11525  12712      1
 16817  11526  11527      1
 16818  11526  11629      1
 16819  11527  11529      1
 16820  11528  11530      1
 16821  11529  11530      1
 16822  11529  11531      1
 16823  11530  11532      1
 16824  11531  11533      1
 16825  11531  11633      1
 16826  11532  11534      1
 16827  11533  11535      1
 16828  11533  11640      1
 16829  11534  11535      1
 16830  11534  11537      1
 16831  11535  11539      1
 16832  11536  11537      1
 16833  11537  11540      1
 16834  11538  11539      1
 16835  11538  11640      1
 16836  11538  11643      1
 16837  11539  11541      1
 16838  11539  12723      1
 16839  11540  11541      1
 16840  11541  11543      1
 16841  11542  11643      1
 16842  11543  11544      1
 16843  11543  12729      1
 16844  11544  11545      1
 16845  11544  11547      1
 16846  11545  11649      1
 16847  11545  11652      1
 16848  11546  11549      1
 16849  11546  11652      1
 16850  11547  11548      1
 16851  11547  11549      1
 16852  11550  11551      1
 16853  11550  11552      1
 16854  11550  12737      1
 16855  11551  11553      1
 16856  11551  11659      1
 16857  11552  11554      1
 16858  11553  11554      1
 16859  11553  11661      1
 16860  11554  11556      1
 16861  11555  11556      1
 16862  11556  11557      1
 16863  11556  11558      1
 16864  11557  11562      1
 16865  11557  11665      1
 16866  11558  11559      1
 16867  11558  11560      1
 16868  11559  11670      1
 16869  11559  12856      1
 16870  11560  11561      1
 16871  11560  12747      1
 16872  11562  11563      1
 16873  11562  11670      1
 16874  11563  11564      1
 16875  11563  11565      1
 16876  11565  11567      1
 16877  11565  11675      1
 16878  11566  11567      1
 16879  11566  11568      1
 16880  11566  12750      1
 16881  11567  11569      1
 16882  11568  11570      1
 16883  11569  11571      1
 16884  11569  11573      1
 16885  11570  11573      1
 16886  11571  11574      1
 16887  11571  11681      1
 16888  11572  11574      1
 16889  11572  11680      1
 16890  11573  11576      1
 16891  11574  11578      1
 16892  11575  11577      1
 16893  11576  11579      1
 16894  11576  11580      1
 16895  11577  11578      1
 16896  11578  11580      1
 16897  11579  12662      1
 16898  11580  11581      1
 16899  11581  12769      1
 16900  11582  11583      1
 16901  11583  11585      1
 16902  11584  11588      1
 16903  11584  12775      1
 16904  11585  11586      1
 16905  11585  11587      1
 16906  11586  11695      1
 16907  11587  11588      1
 16908  11587  11589      1
 16909  11588  12779      1
 16910  11589  11696      1
 16911  11589  12778      1
 16912  11590  11591      1
 16913  11591  11594      1
 16914  11591  12788      1
 16915  11592  11593      1
 16916  11592  11594      1
 16917  11592  11702      1
 16918  11593  11595      1
 16919  11593  11705      1
 16920  11594  11596      1
 16921  11595  11597      1
 16922  11596  11597      1
 16923  11596  11598      1
 16924  11598  12791      1
 16925  11599  11601      1
 16926  11600  11603      1
 16927  11600  12796      1
 16928  11601  11602      1
 16929  11601  11604      1
 16930  11602  11603      1
 16931  11603  11605      1
 16932  11604  11607      1
 16933  11605  11606      1
 16934  11605  11607      1
 16935  11606  11608      1
 16936  11606  12799      1
 16937  11607  11609      1
 16938  11608  11610      1
 16939  11608  11719      1
 16940  11609  11610      1
 16941  11610  11723      1
 16942  11611  11612      1
 16943  11611  12804      1
 16944  11612  11613      1
 16945  11612  11614      1
 16946  11613  11616      1
 16947  11613  12807      1
 16948  11614  11617      1
 16949  11615  11616      1
 16950  11615  11727      1
 16951  11615  12809      1
 16952  11616  11618      1
 16953  11617  11619      1
 16954  11618  11619      1
 16955  11618  11621      1
 16956  11619  11622      1
 16957  11620  12811      1
 16958  11620  12819      1
 16959  11621  11624      1
 16960  11621  12816      1
 16961  11622  11623      1
 16962  11622  11624      1
 16963  11624  11736      1
 16964  11625  12822      1
 16965  11626  11628      1
 16966  11626  11739      1
 16967  11626  12827      1
 16968  11627  11629      1
 16969  11628  11630      1
 16970  11628  11746      1
 16971  11629  11631      1
 16972  11630  11631      1
 16973  11630  11632      1
 16974  11631  11633      1
 16975  11632  11634      1
 16976  11632  12829      1
 16977  11633  11635      1
 16978  11634  11635      1
 16979  11634  12835      1
 16980  11635  11636      1
 16981  11636  11637      1
 16982  11636  11639      1
 16983  11637  11640      1
 16984  11638  11639      1
 16985  11638  11755      1
 16986  11639  11641      1
 16987  11641  11644      1
 16988  11641  12836      1
 16989  11642  11643      1
 16990  11642  11644      1
 16991  11642  11645      1
 16992  11644  11647      1
 16993  11645  11646      1
 16994  11646  11651      1
 16995  11647  11648      1
 16996  11647  11650      1
 16997  11648  11649      1
 16998  11648  12840      1
 16999  11649  12729      1
 17000  11650  11651      1
 17001  11650  11654      1
 17002  11651  11653      1
 17003  11652  11657      1
 17004  11653  11658      1
 17005  11654  11655      1
 17006  11654  12845      1
 17007  11655  11658      1
 17008  11655  11660      1
 17009  11656  11659      1
 17010  11656  11660      1
 17011  11656  12845      1
 17012  11657  11660      1
 17013  11657  11661      1
 17014  11658  11662      1
 17015  11659  12847      1
 17016  11660  11663      1
 17017  11661  11665      1
 17018  11662  11664      1
 17019  11662  11768      1
 17020  11663  11664      1
 17021  11663  11667      1
 17022  11664  11666      1
 17023  11667  11668      1
 17024  11667  12855      1
 17025  11668  11669      1
 17026  11668  11671      1
 17027  11669  11673      1
 17028  11669  11770      1
 17029  11670  11672      1
 17030  11671  11672      1
 17031  11671  12861      1
 17032  11672  11675      1
 17033  11673  11674      1
 17034  11673  11777      1
 17035  11674  11676      1
 17036  11675  11677      1
 17037  11676  11679      1
 17038  11677  11681      1
 17039  11677  12866      1
 17040  11678  11679      1
 17041  11678  11777      1
 17042  11678  11784      1
 17043  11679  11682      1
 17044  11680  11682      1
 17045  11681  11682      1
 17046  11681  11683      1
 17047  11682  11685      1
 17048  11683  11686      1
 17049  11683  12869      1
 17050  11684  11685      1
 17051  11684  11784      1
 17052  11684  11788      1
 17053  11685  11687      1
 17054  11686  11687      1
 17055  11686  11688      1
 17056  11687  11689      1
 17057  11688  11690      1
 17058  11688  12873      1
 17059  11689  11691      1
 17060  11690  11691      1
 17061  11690  12878      1
 17062  11691  11692      1
 17063  11692  11693      1
 17064  11692  11797      1
 17065  11693  11694      1
 17066  11693  11697      1
 17067  11694  11696      1
 17068  11694  12882      1
 17069  11695  11698      1
 17070  11696  11698      1
 17071  11697  11698      1
 17072  11699  11700      1
 17073  11699  11701      1
 17074  11699  12890      1
 17075  11700  11805      1
 17076  11700  11808      1
 17077  11701  11702      1
 17078  11701  11704      1
 17079  11702  12891      1
 17080  11703  11704      1
 17081  11703  11808      1
 17082  11704  11705      1
 17083  11706  11707      1
 17084  11706  11708      1
 17085  11706  11813      1
 17086  11707  11709      1
 17087  11708  11710      1
 17088  11708  12894      1
 17089  11709  11710      1
 17090  11711  11812      1
 17091  11712  11817      1
 17092  11713  11714      1
 17093  11713  11715      1
 17094  11714  11716      1
 17095  11715  11717      1
 17096  11715  11818      1
 17097  11716  11718      1
 17098  11717  11718      1
 17099  11717  11822      1
 17100  11718  11720      1
 17101  11719  11721      1
 17102  11719  12904      1
 17103  11720  11721      1
 17104  11720  11722      1
 17105  11721  11723      1
 17106  11722  11724      1
 17107  11723  11725      1
 17108  11724  11726      1
 17109  11725  11726      1
 17110  11725  11727      1
 17111  11726  11728      1
 17112  11727  11729      1
 17113  11728  11730      1
 17114  11728  11731      1
 17115  11729  11730      1
 17116  11729  12922      1
 17117  11730  11732      1
 17118  11731  11735      1
 17119  11732  11733      1
 17120  11732  11737      1
 17121  11732  11832      1
 17122  11733  11740      1
 17123  11733  12921      1
 17124  11733  12922      1
 17125  11734  11736      1
 17126  11735  11737      1
 17127  11736  11738      1
 17128  11737  11741      1
 17129  11737  11837      1
 17130  11738  11739      1
 17131  11738  11741      1
 17132  11739  12923      1
 17133  11740  11742      1
 17134  11740  13031      1
 17135  11741  11742      1
 17136  11741  11744      1
 17137  11742  12926      1
 17138  11743  11745      1
 17139  11743  11837      1
 17140  11744  11745      1
 17141  11744  11746      1
 17142  11746  11747      1
 17143  11748  11749      1
 17144  11748  12926      1
 17145  11748  12931      1
 17146  11749  11750      1
 17147  11749  11841      1
 17148  11750  11751      1
 17149  11750  11845      1
 17150  11751  11753      1
 17151  11751  11757      1
 17152  11752  11754      1
 17153  11752  12835      1
 17154  11752  12937      1
 17155  11753  11754      1
 17156  11753  12935      1
 17157  11754  11755      1
 17158  11755  11756      1
 17159  11756  11757      1
 17160  11757  11854      1
 17161  11758  11759      1
 17162  11758  11859      1
 17163  11758  12940      1
 17164  11759  11760      1
 17165  11759  11761      1
 17166  11760  11762      1
 17167  11760  11862      1
 17168  11761  11764      1
 17169  11761  13050      1
 17170  11762  11763      1
 17171  11762  11764      1
 17172  11763  11765      1
 17173  11764  11766      1
 17174  11766  11767      1
 17175  11767  11769      1
 17176  11767  12952      1
 17177  11769  11770      1
 17178  11770  11774      1
 17179  11771  11773      1
 17180  11771  11775      1
 17181  11771  11878      1
 17182  11772  11773      1
 17183  11772  11879      1
 17184  11772  13068      1
 17185  11773  11774      1
 17186  11774  11776      1
 17187  11775  11778      1
 17188  11776  11777      1
 17189  11776  11781      1
 17190  11778  11782      1
 17191  11779  11780      1
 17192  11779  13068      1
 17193  11779  13072      1
 17194  11780  11781      1
 17195  11780  11782      1
 17196  11781  11783      1
 17197  11782  11886      1
 17198  11783  11784      1
 17199  11783  11785      1
 17200  11785  11789      1
 17201  11785  12964      1
 17202  11785  12966      1
 17203  11786  11791      1
 17204  11786  11891      1
 17205  11786  12966      1
 17206  11787  11792      1
 17207  11787  11890      1
 17208  11788  11789      1
 17209  11788  11790      1
 17210  11789  11793      1
 17211  11790  11794      1
 17212  11791  11792      1
 17213  11791  11795      1
 17214  11792  11796      1
 17215  11793  11795      1
 17216  11793  12970      1
 17217  11794  11797      1
 17218  11795  11798      1
 17219  11795  12972      1
 17220  11796  11799      1
 17221  11797  11800      1
 17222  11798  11799      1
 17223  11798  11801      1
 17224  11799  11802      1
 17225  11801  11905      1
 17226  11801  12979      1
 17227  11802  11908      1
 17228  11803  11806      1
 17229  11803  11908      1
 17230  11803  11909      1
 17231  11804  11807      1
 17232  11804  11808      1
 17233  11805  11810      1
 17234  11805  12986      1
 17235  11806  11807      1
 17236  11806  11810      1
 17237  11807  11809      1
 17238  11810  12987      1
 17239  11810  12993      1
 17240  11811  11916      1
 17241  11812  11813      1
 17242  11812  12997      1
 17243  11813  11815      1
 17244  11814  11815      1
 17245  11816  11818      1
 17246  11817  11819      1
 17247  11818  13004      1
 17248  11819  11820      1
 17249  11819  11822      1
 17250  11820  11821      1
 17251  11821  11823      1
 17252  11822  11824      1
 17253  11823  11824      1
 17254  11824  13012      1
 17255  11825  11826      1
 17256  11826  11827      1
 17257  11827  11829      1
 17258  11828  11832      1
 17259  11828  12921      1
 17260  11828  13022      1
 17261  11829  11830      1
 17262  11829  11833      1
 17263  11830  11831      1
 17264  11830  11832      1
 17265  11833  11835      1
 17266  11835  11836      1
 17267  11836  11838      1
 17268  11836  13027      1
 17269  11837  11839      1
 17270  11838  11839      1
 17271  11838  11840      1
 17272  11839  11841      1
 17273  11840  11842      1
 17274  11841  11843      1
 17275  11842  11843      1
 17276  11842  13036      1
 17277  11843  11845      1
 17278  11844  11846      1
 17279  11844  11847      1
 17280  11845  11846      1
 17281  11846  11848      1
 17282  11847  11849      1
 17283  11849  11850      1
 17284  11850  11853      1
 17285  11850  11855      1
 17286  11851  11853      1
 17287  11852  11853      1
 17288  11852  11854      1
 17289  11854  11858      1
 17290  11855  11856      1
 17291  11855  11857      1
 17292  11856  11860      1
 17293  11856  13044      1
 17294  11857  11858      1
 17295  11857  11859      1
 17296  11858  11862      1
 17297  11859  13044      1
 17298  11860  11861      1
 17299  11861  11866      1
 17300  11862  11865      1
 17301  11863  11864      1
 17302  11864  11865      1
 17303  11864  11866      1
 17304  11866  11867      1
 17305  11867  13052      1
 17306  11868  11870      1
 17307  11869  11870      1
 17308  11869  11871      1
 17309  11870  11872      1
 17310  11871  11874      1
 17311  11871  13054      1
 17312  11872  11873      1
 17313  11872  11875      1
 17314  11873  11876      1
 17315  11874  11875      1
 17316  11874  13061      1
 17317  11875  11877      1
 17318  11876  11878      1
 17319  11877  11878      1
 17320  11877  11879      1
 17321  11879  13063      1
 17322  11880  11881      1
 17323  11880  11882      1
 17324  11881  11883      1
 17325  11882  11885      1
 17326  11883  11884      1
 17327  11884  11885      1
 17328  11884  11887      1
 17329  11885  11886      1
 17330  11886  11890      1
 17331  11887  11888      1
 17332  11887  11889      1
 17333  11888  11891      1
 17334  11888  13072      1
 17335  11889  11893      1
 17336  11890  11891      1
 17337  11892  11893      1
 17338  11892  11894      1
 17339  11893  11895      1
 17340  11894  11897      1
 17341  11895  11896      1
 17342  11895  11897      1
 17343  11896  11898      1
 17344  11896  13080      1
 17345  11897  11899      1
 17346  11898  11900      1
 17347  11898  13084      1
 17348  11899  11903      1
 17349  11899  11904      1
 17350  11900  11901      1
 17351  11900  11905      1
 17352  11901  11902      1
 17353  11901  13088      1
 17354  11902  11904      1
 17355  11903  11906      1
 17356  11904  11907      1
 17357  11905  13091      1
 17358  11906  11907      1
 17359  11908  11910      1
 17360  11909  12987      1
 17361  11909  13091      1
 17362  11910  11912      1
 17363  11911  13094      1
 17364  11911  13097      1
 17365  11912  11913      1
 17366  11913  11915      1
 17367  11913  11916      1
 17368  11914  11915      1
 17369  11914  11917      1
 17370  11914  13097      1
 17371  11915  11918      1
 17372  11916  11919      1
 17373  11917  13105      1
 17374  11918  11919      1
 17375  11920  11921      1
 17376  11920  11922      1
 17377  11921  11924      1
 17378  11922  11923      1
 17379  11923  11925      1
 17380  11925  11928      1
 17381  11926  11927      1
 17382  11927  11928      1
 17383  11927  12035      1
 17384  11928  11931      1
 17385  11929  11932      1
 17386  11930  11931      1
 17387  11931  11933      1
 17388  11932  11933      1
 17389  11933  11934      1
 17390  11933  11935      1
 17391  11935  11937      1
 17392  11936  11938      1
 17393  11936  11939      1
 17394  11937  11939      1
 17395  11937  12047      1
 17396  11939  11940      1
 17397  11940  11941      1
 17398  11941  12047      1
 17399  11941  12052      1
 17400  11942  11945      1
 17401  11942  12051      1
 17402  11943  11944      1
 17403  11944  11946      1
 17404  11944  12058      1
 17405  11945  12058      1
 17406  11946  11947      1
 17407  11949  11950      1
 17408  11949  12061      1
 17409  11950  11952      1
 17410  11950  11955      1
 17411  11951  11953      1
 17412  11952  11957      1
 17413  11952  12065      1
 17414  11953  11954      1
 17415  11953  11958      1
 17416  11954  11956      1
 17417  11955  11959      1
 17418  11956  11960      1
 17419  11957  11958      1
 17420  11958  11961      1
 17421  11959  12071      1
 17422  11960  11962      1
 17423  11961  11963      1
 17424  11962  11963      1
 17425  11962  11965      1
 17426  11963  11966      1
 17427  11964  12078      1
 17428  11965  11969      1
 17429  11966  11967      1
 17430  11966  11969      1
 17431  11967  11970      1
 17432  11968  11971      1
 17433  11968  11972      1
 17434  11968  12078      1
 17435  11969  11973      1
 17436  11970  11972      1
 17437  11971  11974      1
 17438  11972  12085      1
 17439  11973  11974      1
 17440  11973  11975      1
 17441  11974  11976      1
 17442  11975  11977      1
 17443  11975  11978      1
 17444  11976  11978      1
 17445  11977  11979      1
 17446  11979  11980      1
 17447  11980  11982      1
 17448  11981  11982      1
 17449  11982  11984      1
 17450  11983  11985      1
 17451  11983  12095      1
 17452  11984  11985      1
 17453  11984  11987      1
 17454  11985  11988      1
 17455  11987  11989      1
 17456  11988  11990      1
 17457  11989  11993      1
 17458  11989  11994      1
 17459  11990  11992      1
 17460  11990  11993      1
 17461  11991  11992      1
 17462  11993  11995      1
 17463  11994  11996      1
 17464  11995  11996      1
 17465  11997  12000      1
 17466  11998  12001      1
 17467  11999  12002      1
 17468  12000  12112      1
 17469  12001  12003      1
 17470  12001  12004      1
 17471  12002  12005      1
 17472  12003  12112      1
 17473  12003  12114      1
 17474  12004  12006      1
 17475  12005  12006      1
 17476  12005  12007      1
 17477  12006  12008      1
 17478  12007  12010      1
 17479  12008  12012      1
 17480  12009  12010      1
 17481  12009  12011      1
 17482  12010  12014      1
 17483  12011  12013      1
 17484  12011  12120      1
 17485  12012  12013      1
 17486  12013  12015      1
 17487  12014  12017      1
 17488  12015  12016      1
 17489  12015  12018      1
 17490  12017  12019      1
 17491  12017  13102      1
 17492  12018  12020      1
 17493  12018  12129      1
 17494  12019  12020      1
 17495  12020  12022      1
 17496  12021  12022      1
 17497  12022  12024      1
 17498  12023  12024      1
 17499  12023  13102      1
 17500  12025  12028      1
 17501  12025  12029      1
 17502  12026  12028      1
 17503  12027  12030      1
 17504  12028  12031      1
 17505  12029  12140      1
 17506  12030  12032      1
 17507  12031  12032      1
 17508  12031  12034      1
 17509  12032  12035      1
 17510  12033  12034      1
 17511  12033  12142      1
 17512  12033  12145      1
 17513  12034  12036      1
 17514  12035  12037      1
 17515  12036  12038      1
 17516  12036  12039      1
 17517  12037  12040      1
 17518  12038  12145      1
 17519  12038  12151      1
 17520  12039  12040      1
 17521  12039  12041      1
 17522  12040  12042      1
 17523  12041  12043      1
 17524  12041  12044      1
 17525  12042  12044      1
 17526  12043  12045      1
 17527  12043  12151      1
 17528  12044  12046      1
 17529  12045  12154      1
 17530  12046  12048      1
 17531  12046  12050      1
 17532  12046  12158      1
 17533  12047  12049      1
 17534  12048  12053      1
 17535  12049  12050      1
 17536  12049  12051      1
 17537  12050  12054      1
 17538  12053  12055      1
 17539  12054  12055      1
 17540  12054  12056      1
 17541  12055  12165      1
 17542  12056  12057      1
 17543  12057  12060      1
 17544  12057  12165      1
 17545  12058  12061      1
 17546  12059  12063      1
 17547  12059  12165      1
 17548  12060  12167      1
 17549  12061  12065      1
 17550  12062  12064      1
 17551  12063  12064      1
 17552  12063  12169      1
 17553  12064  12066      1
 17554  12066  12067      1
 17555  12066  12069      1
 17556  12067  12071      1
 17557  12068  12070      1
 17558  12069  12070      1
 17559  12069  12174      1
 17560  12070  12072      1
 17561  12071  12072      1
 17562  12072  12076      1
 17563  12073  12074      1
 17564  12074  12075      1
 17565  12074  12079      1
 17566  12075  12077      1
 17567  12075  12181      1
 17568  12076  12078      1
 17569  12076  12080      1
 17570  12077  12080      1
 17571  12077  12081      1
 17572  12079  12082      1
 17573  12080  12083      1
 17574  12081  12183      1
 17575  12082  12083      1
 17576  12083  12084      1
 17577  12084  12183      1
 17578  12084  12190      1
 17579  12085  12086      1
 17580  12085  12088      1
 17581  12086  12089      1
 17582  12087  12091      1
 17583  12087  12190      1
 17584  12088  12090      1
 17585  12089  12090      1
 17586  12089  12092      1
 17587  12090  12093      1
 17588  12091  12092      1
 17589  12091  12195      1
 17590  12092  12094      1
 17591  12093  12094      1
 17592  12096  12097      1
 17593  12096  12200      1
 17594  12097  12098      1
 17595  12097  12100      1
 17596  12098  12101      1
 17597  12099  12100      1
 17598  12099  12102      1
 17599  12100  12103      1
 17600  12101  12103      1
 17601  12102  12105      1
 17602  12103  12104      1
 17603  12104  12106      1
 17604  12104  12107      1
 17605  12105  12106      1
 17606  12106  12108      1
 17607  12107  12110      1
 17608  12108  12109      1
 17609  12108  12212      1
 17610  12109  12110      1
 17611  12109  12111      1
 17612  12112  12113      1
 17613  12113  12115      1
 17614  12113  12116      1
 17615  12114  12116      1
 17616  12115  12117      1
 17617  12116  12119      1
 17618  12117  12120      1
 17619  12118  12224      1
 17620  12119  12120      1
 17621  12119  12122      1
 17622  12119  12123      1
 17623  12121  12123      1
 17624  12121  12227      1
 17625  12121  12228      1
 17626  12122  12126      1
 17627  12123  12124      1
 17628  12123  12125      1
 17629  12124  12127      1
 17630  12125  12126      1
 17631  12125  12128      1
 17632  12127  12129      1
 17633  12128  12234      1
 17634  12128  12235      1
 17635  12129  12132      1
 17636  12130  12131      1
 17637  12130  12235      1
 17638  12130  12241      1
 17639  12131  12132      1
 17640  12131  12134      1
 17641  12133  12134      1
 17642  12135  12137      1
 17643  12136  12138      1
 17644  12137  12139      1
 17645  12137  12252      1
 17646  12138  12139      1
 17647  12138  12140      1
 17648  12141  12142      1
 17649  12141  12144      1
 17650  12143  12144      1
 17651  12143  12253      1
 17652  12143  12254      1
 17653  12144  12146      1
 17654  12145  12146      1
 17655  12146  12148      1
 17656  12147  12148      1
 17657  12147  12254      1
 17658  12147  12260      1
 17659  12148  12149      1
 17660  12149  12150      1
 17661  12150  12151      1
 17662  12152  12153      1
 17663  12152  12262      1
 17664  12153  12155      1
 17665  12153  12157      1
 17666  12154  12158      1
 17667  12154  12159      1
 17668  12155  12156      1
 17669  12156  12158      1
 17670  12157  12159      1
 17671  12157  12267      1
 17672  12159  12160      1
 17673  12161  12163      1
 17674  12161  12274      1
 17675  12162  12164      1
 17676  12163  12164      1
 17677  12164  12165      1
 17678  12166  12285      1
 17679  12167  12168      1
 17680  12168  12171      1
 17681  12169  12172      1
 17682  12170  12288      1
 17683  12171  12172      1
 17684  12171  12173      1
 17685  12172  12174      1
 17686  12173  12176      1
 17687  12174  12175      1
 17688  12175  12177      1
 17689  12176  12179      1
 17690  12177  12181      1
 17691  12178  12180      1
 17692  12179  12180      1
 17693  12179  12297      1
 17694  12180  12181      1
 17695  12182  12184      1
 17696  12182  12303      1
 17697  12183  12185      1
 17698  12184  12186      1
 17699  12184  12307      1
 17700  12185  12186      1
 17701  12186  12189      1
 17702  12187  12189      1
 17703  12188  12307      1
 17704  12189  12190      1
 17705  12191  12192      1
 17706  12191  12193      1
 17707  12191  12316      1
 17708  12192  12197      1
 17709  12193  12194      1
 17710  12193  12196      1
 17711  12194  12321      1
 17712  12195  12196      1
 17713  12195  12197      1
 17714  12196  12198      1
 17715  12198  12199      1
 17716  12199  12200      1
 17717  12201  12203      1
 17718  12201  12331      1
 17719  12202  12204      1
 17720  12202  12334      1
 17721  12203  12205      1
 17722  12204  12205      1
 17723  12204  12206      1
 17724  12205  12210      1
 17725  12206  12207      1
 17726  12206  12208      1
 17727  12207  12211      1
 17728  12208  12209      1
 17729  12208  12212      1
 17730  12209  12214      1
 17731  12210  12215      1
 17732  12210  12342      1
 17733  12211  12212      1
 17734  12213  12216      1
 17735  12214  12217      1
 17736  12215  12216      1
 17737  12215  12217      1
 17738  12215  12346      1
 17739  12216  12218      1
 17740  12217  12219      1
 17741  12218  12220      1
 17742  12219  12221      1
 17743  12220  12221      1
 17744  12220  12223      1
 17745  12220  12351      1
 17746  12221  12225      1
 17747  12222  12224      1
 17748  12223  12354      1
 17749  12224  12228      1
 17750  12225  12226      1
 17751  12225  12229      1
 17752  12226  12227      1
 17753  12228  12229      1
 17754  12229  12231      1
 17755  12230  12232      1
 17756  12230  12359      1
 17757  12231  12232      1
 17758  12231  12233      1
 17759  12232  12237      1
 17760  12233  12235      1
 17761  12234  12239      1
 17762  12236  12238      1
 17763  12236  12363      1
 17764  12237  12240      1
 17765  12237  12366      1
 17766  12238  12239      1
 17767  12238  12240      1
 17768  12240  12243      1
 17769  12241  12244      1
 17770  12243  12245      1
 17771  12243  12246      1
 17772  12244  12245      1
 17773  12246  12368      1
 17774  12247  12249      1
 17775  12248  12250      1
 17776  12248  12371      1
 17777  12249  12251      1
 17778  12249  12253      1
 17779  12250  12251      1
 17780  12251  12252      1
 17781  12254  12256      1
 17782  12255  12256      1
 17783  12255  12257      1
 17784  12256  12258      1
 17785  12257  12259      1
 17786  12257  12380      1
 17787  12258  12260      1
 17788  12258  12261      1
 17789  12259  12261      1
 17790  12259  12385      1
 17791  12260  12262      1
 17792  12261  12264      1
 17793  12262  12263      1
 17794  12264  12265      1
 17795  12265  12391      1
 17796  12266  12267      1
 17797  12267  12270      1
 17798  12268  12269      1
 17799  12268  12271      1
 17800  12268  12395      1
 17801  12269  12270      1
 17802  12269  12272      1
 17803  12270  12274      1
 17804  12271  12275      1
 17805  12272  12273      1
 17806  12273  12279      1
 17807  12274  12277      1
 17808  12275  12278      1
 17809  12276  12278      1
 17810  12276  12398      1
 17811  12276  12404      1
 17812  12277  12279      1
 17813  12277  12280      1
 17814  12278  12280      1
 17815  12279  12281      1
 17816  12280  12282      1
 17817  12280  12284      1
 17818  12281  12282      1
 17819  12282  12283      1
 17820  12283  12286      1
 17821  12283  12404      1
 17822  12284  12285      1
 17823  12284  12287      1
 17824  12285  12288      1
 17825  12286  12411      1
 17826  12287  12289      1
 17827  12288  12290      1
 17828  12289  12291      1
 17829  12289  12292      1
 17830  12290  12291      1
 17831  12291  12293      1
 17832  12292  12294      1
 17833  12293  12294      1
 17834  12293  12295      1
 17835  12294  12296      1
 17836  12295  12300      1
 17837  12296  12299      1
 17838  12296  12301      1
 17839  12297  12298      1
 17840  12297  12300      1
 17841  12298  12302      1
 17842  12299  12304      1
 17843  12299  12424      1
 17844  12300  12303      1
 17845  12300  12305      1
 17846  12301  12302      1
 17847  12302  12305      1
 17848  12304  12305      1
 17849  12304  12306      1
 17850  12305  12308      1
 17851  12306  12310      1
 17852  12306  12432      1
 17853  12307  12308      1
 17854  12308  12309      1
 17855  12308  12312      1
 17856  12309  12311      1
 17857  12310  12312      1
 17858  12311  12313      1
 17859  12312  12314      1
 17860  12312  12315      1
 17861  12313  12315      1
 17862  12313  12434      1
 17863  12314  12316      1
 17864  12315  12317      1
 17865  12315  12318      1
 17866  12316  12319      1
 17867  12317  12320      1
 17868  12317  12439      1
 17869  12318  12319      1
 17870  12318  12322      1
 17871  12319  12321      1
 17872  12322  12323      1
 17873  12323  12325      1
 17874  12324  12327      1
 17875  12325  12326      1
 17876  12325  12443      1
 17877  12326  12328      1
 17878  12326  12330      1
 17879  12327  12328      1
 17880  12327  12331      1
 17881  12328  12329      1
 17882  12329  12332      1
 17883  12331  12334      1
 17884  12332  12334      1
 17885  12335  12336      1
 17886  12335  12337      1
 17887  12336  12339      1
 17888  12336  12453      1
 17889  12337  12340      1
 17890  12338  12341      1
 17891  12338  12453      1
 17892  12339  12340      1
 17893  12339  12341      1
 17894  12340  12342      1
 17895  12341  12343      1
 17896  12342  12344      1
 17897  12344  12345      1
 17898  12344  12346      1
 17899  12345  12347      1
 17900  12346  12348      1
 17901  12347  12349      1
 17902  12348  12349      1
 17903  12348  12351      1
 17904  12350  12352      1
 17905  12350  12465      1
 17906  12351  12353      1
 17907  12352  12357      1
 17908  12352  12467      1
 17909  12353  12354      1
 17910  12353  12356      1
 17911  12355  12356      1
 17912  12356  12358      1
 17913  12357  12358      1
 17914  12357  12473      1
 17915  12358  12360      1
 17916  12359  12361      1
 17917  12360  12361      1
 17918  12360  12362      1
 17919  12361  12364      1
 17920  12362  12365      1
 17921  12362  12474      1
 17922  12364  12366      1
 17923  12364  12367      1
 17924  12365  12367      1
 17925  12365  12477      1
 17926  12366  12368      1
 17927  12367  12369      1
 17928  12370  12371      1
 17929  12372  12375      1
 17930  12372  12486      1
 17931  12373  12374      1
 17932  12373  12377      1
 17933  12374  12375      1
 17934  12374  12488      1
 17935  12375  12376      1
 17936  12376  12379      1
 17937  12376  12380      1
 17938  12377  12378      1
 17939  12378  12380      1
 17940  12381  12383      1
 17941  12381  12497      1
 17942  12382  12384      1
 17943  12382  12495      1
 17944  12383  12388      1
 17945  12384  12386      1
 17946  12384  12389      1
 17947  12385  12387      1
 17948  12385  12391      1
 17949  12386  12387      1
 17950  12388  12390      1
 17951  12389  12390      1
 17952  12389  12497      1
 17953  12390  12392      1
 17954  12391  12392      1
 17955  12392  12393      1
 17956  12393  12394      1
 17957  12393  12396      1
 17958  12394  12395      1
 17959  12395  12398      1
 17960  12396  12397      1
 17961  12396  12399      1
 17962  12397  12400      1
 17963  12398  12399      1
 17964  12399  12401      1
 17965  12400  12403      1
 17966  12401  12402      1
 17967  12402  12403      1
 17968  12402  12405      1
 17969  12403  12406      1
 17970  12404  12407      1
 17971  12405  12509      1
 17972  12406  12408      1
 17973  12406  12409      1
 17974  12407  12408      1
 17975  12407  12410      1
 17976  12408  12411      1
 17977  12409  12412      1
 17978  12410  12414      1
 17979  12411  12416      1
 17980  12412  12415      1
 17981  12413  12415      1
 17982  12413  12419      1
 17983  12413  12509      1
 17984  12414  12416      1
 17985  12414  12417      1
 17986  12415  12418      1
 17987  12416  12418      1
 17988  12417  12419      1
 17989  12418  12420      1
 17990  12419  12514      1
 17991  12420  12421      1
 17992  12421  12424      1
 17993  12422  12423      1
 17994  12422  12426      1
 17995  12423  12425      1
 17996  12423  12514      1
 17997  12425  12427      1
 17998  12425  12518      1
 17999  12426  12428      1
 18000  12427  12429      1
 18001  12428  12431      1
 18002  12429  12430      1
 18003  12429  12431      1
 18004  12430  12432      1
 18005  12431  12433      1
 18006  12432  12434      1
 18007  12433  12435      1
 18008  12433  12436      1
 18009  12434  12438      1
 18010  12435  12437      1
 18011  12435  12527      1
 18012  12437  12438      1
 18013  12437  12440      1
 18014  12438  12439      1
 18015  12439  12441      1
 18016  12440  12441      1
 18017  12441  12442      1
 18018  12442  12443      1
 18019  12442  12444      1
 18020  12443  12447      1
 18021  12444  12446      1
 18022  12445  12448      1
 18023  12445  12533      1
 18024  12446  12448      1
 18025  12446  12538      1
 18026  12447  12448      1
 18027  12447  12449      1
 18028  12450  12451      1
 18029  12450  12543      1
 18030  12451  12452      1
 18031  12452  12453      1
 18032  12452  12455      1
 18033  12452  12456      1
 18034  12454  12455      1
 18035  12455  12457      1
 18036  12456  12460      1
 18037  12457  12458      1
 18038  12457  12459      1
 18039  12458  12549      1
 18040  12459  12460      1
 18041  12459  12461      1
 18042  12460  12462      1
 18043  12461  12464      1
 18044  12461  12549      1
 18045  12462  12463      1
 18046  12463  12464      1
 18047  12463  12466      1
 18048  12464  12556      1
 18049  12465  12466      1
 18050  12466  12467      1
 18051  12467  12470      1
 18052  12468  12471      1
 18053  12468  12556      1
 18054  12468  12561      1
 18055  12469  12470      1
 18056  12470  12471      1
 18057  12471  12472      1
 18058  12472  12560      1
 18059  12473  12474      1
 18060  12474  12475      1
 18061  12476  12572      1
 18062  12477  12480      1
 18063  12478  12479      1
 18064  12478  12575      1
 18065  12479  12480      1
 18066  12479  12481      1
 18067  12481  12482      1
 18068  12482  12577      1
 18069  12483  12484      1
 18070  12484  12485      1
 18071  12485  12487      1
 18072  12485  12488      1
 18073  12486  12488      1
 18074  12487  12489      1
 18075  12489  12585      1
 18076  12490  12587      1
 18077  12491  12492      1
 18078  12491  12493      1
 18079  12491  12592      1
 18080  12493  12494      1
 18081  12493  12496      1
 18082  12495  12496      1
 18083  12496  12497      1
 18084  12498  12499      1
 18085  12498  12601      1
 18086  12498  12606      1
 18087  12499  12500      1
 18088  12499  12501      1
 18089  12500  12502      1
 18090  12501  12503      1
 18091  12502  12610      1
 18092  12503  12504      1
 18093  12503  12505      1
 18094  12504  12610      1
 18095  12504  12612      1
 18096  12505  12506      1
 18097  12506  12508      1
 18098  12506  12612      1
 18099  12508  12510      1
 18100  12510  12511      1
 18101  12510  12621      1
 18102  12511  12512      1
 18103  12512  12513      1
 18104  12512  12515      1
 18105  12513  12516      1
 18106  12513  12624      1
 18107  12514  12515      1
 18108  12515  12517      1
 18109  12516  12517      1
 18110  12517  12518      1
 18111  12518  12520      1
 18112  12519  12523      1
 18113  12519  12633      1
 18114  12520  12522      1
 18115  12521  12632      1
 18116  12522  12523      1
 18117  12523  12525      1
 18118  12524  12526      1
 18119  12525  12638      1
 18120  12526  12527      1
 18121  12526  12529      1
 18122  12527  12528      1
 18123  12528  12530      1
 18124  12529  12531      1
 18125  12530  12531      1
 18126  12531  12532      1
 18127  12532  12534      1
 18128  12532  12642      1
 18129  12533  12535      1
 18130  12534  12536      1
 18131  12534  12646      1
 18132  12535  12537      1
 18133  12536  12537      1
 18134  12536  12540      1
 18135  12537  12539      1
 18136  12538  12539      1
 18137  12539  12542      1
 18138  12540  12541      1
 18139  12540  12651      1
 18140  12542  12543      1
 18141  12542  12544      1
 18142  12543  12545      1
 18143  12544  12546      1
 18144  12544  12547      1
 18145  12545  12547      1
 18146  12547  12548      1
 18147  12548  12550      1
 18148  12550  12551      1
 18149  12551  12552      1
 18150  12551  12555      1
 18151  12552  12557      1
 18152  12553  12554      1
 18153  12554  12555      1
 18154  12555  12558      1
 18155  12556  12557      1
 18156  12557  12560      1
 18157  12558  12559      1
 18158  12558  12562      1
 18159  12559  12666      1
 18160  12562  12563      1
 18161  12562  12672      1
 18162  12564  12672      1
 18163  12565  12567      1
 18164  12566  12568      1
 18165  12567  12570      1
 18166  12568  12569      1
 18167  12568  12571      1
 18168  12569  12570      1
 18169  12569  12573      1
 18170  12570  12574      1
 18171  12571  12572      1
 18172  12571  12575      1
 18173  12572  12577      1
 18174  12573  12576      1
 18175  12574  12576      1
 18176  12574  12682      1
 18177  12576  12687      1
 18178  12577  12578      1
 18179  12579  12581      1
 18180  12580  12582      1
 18181  12580  12689      1
 18182  12581  12582      1
 18183  12581  12584      1
 18184  12582  12583      1
 18185  12583  12585      1
 18186  12583  12586      1
 18187  12584  12586      1
 18188  12586  12587      1
 18189  12587  12588      1
 18190  12588  12590      1
 18191  12588  12592      1
 18192  12589  12591      1
 18193  12589  12593      1
 18194  12589  12698      1
 18195  12590  12591      1
 18196  12591  12594      1
 18197  12592  12595      1
 18198  12593  12597      1
 18199  12594  12598      1
 18200  12594  12600      1
 18201  12595  12596      1
 18202  12595  12601      1
 18203  12597  12600      1
 18204  12598  12602      1
 18205  12599  12601      1
 18206  12600  12603      1
 18207  12602  12603      1
 18208  12602  12605      1
 18209  12603  12607      1
 18210  12604  12606      1
 18211  12605  12608      1
 18212  12606  12610      1
 18213  12607  12609      1
 18214  12607  12706      1
 18215  12608  12609      1
 18216  12609  12707      1
 18217  12611  12710      1
 18218  12612  12613      1
 18219  12613  12614      1
 18220  12613  12615      1
 18221  12615  12617      1
 18222  12615  12619      1
 18223  12616  12617      1
 18224  12616  12718      1
 18225  12617  12620      1
 18226  12618  12619      1
 18227  12619  12623      1
 18228  12620  12621      1
 18229  12621  12624      1
 18230  12622  12623      1
 18231  12622  12718      1
 18232  12622  12720      1
 18233  12623  12625      1
 18234  12624  12625      1
 18235  12625  12626      1
 18236  12626  12627      1
 18237  12627  12629      1
 18238  12627  12720      1
 18239  12628  12629      1
 18240  12628  12630      1
 18241  12629  12631      1
 18242  12630  12633      1
 18243  12631  12634      1
 18244  12631  12727      1
 18245  12633  12635      1
 18246  12634  12635      1
 18247  12634  12636      1
 18248  12635  12637      1
 18249  12636  12734      1
 18250  12637  12638      1
 18251  12637  12640      1
 18252  12639  12640      1
 18253  12639  12735      1
 18254  12640  12641      1
 18255  12641  12642      1
 18256  12641  12644      1
 18257  12643  12644      1
 18258  12643  12741      1
 18259  12644  12645      1
 18260  12645  12647      1
 18261  12645  12744      1
 18262  12646  12648      1
 18263  12647  12648      1
 18264  12647  12649      1
 18265  12648  12650      1
 18266  12649  12747      1
 18267  12650  12651      1
 18268  12650  12652      1
 18269  12651  12653      1
 18270  12652  12655      1
 18271  12653  12654      1
 18272  12654  12656      1
 18273  12655  12658      1
 18274  12656  12657      1
 18275  12656  12658      1
 18276  12657  12659      1
 18277  12657  12757      1
 18278  12658  12660      1
 18279  12659  12660      1
 18280  12659  12762      1
 18281  12660  12661      1
 18282  12661  12662      1
 18283  12662  12764      1
 18284  12663  12664      1
 18285  12663  12767      1
 18286  12664  12665      1
 18287  12664  12668      1
 18288  12665  12670      1
 18289  12666  12667      1
 18290  12667  12669      1
 18291  12668  12669      1
 18292  12668  12774      1
 18293  12669  12775      1
 18294  12670  12671      1
 18295  12671  12673      1
 18296  12672  12673      1
 18297  12673  12675      1
 18298  12674  12676      1
 18299  12675  12676      1
 18300  12675  12677      1
 18301  12676  12678      1
 18302  12677  12679      1
 18303  12678  12679      1
 18304  12678  12680      1
 18305  12679  12681      1
 18306  12680  12683      1
 18307  12680  12785      1
 18308  12681  12686      1
 18309  12681  12789      1
 18310  12682  12684      1
 18311  12683  12688      1
 18312  12683  12790      1
 18313  12684  12685      1
 18314  12684  12688      1
 18315  12685  12686      1
 18316  12685  12687      1
 18317  12689  12690      1
 18318  12690  12691      1
 18319  12691  12692      1
 18320  12691  12693      1
 18321  12692  12694      1
 18322  12693  12695      1
 18323  12694  12697      1
 18324  12694  12797      1
 18325  12695  12696      1
 18326  12695  12698      1
 18327  12696  12699      1
 18328  12697  12804      1
 18329  12699  12700      1
 18330  12700  12701      1
 18331  12700  12702      1
 18332  12701  12703      1
 18333  12703  12704      1
 18334  12703  12705      1
 18335  12704  12811      1
 18336  12705  12810      1
 18337  12705  12815      1
 18338  12707  12709      1
 18339  12707  12710      1
 18340  12708  12823      1
 18341  12709  12711      1
 18342  12710  12713      1
 18343  12711  12712      1
 18344  12711  12713      1
 18345  12712  12830      1
 18346  12713  12714      1
 18347  12715  12716      1
 18348  12715  12830      1
 18349  12715  12834      1
 18350  12716  12717      1
 18351  12717  12718      1
 18352  12719  12722      1
 18353  12719  12834      1
 18354  12720  12721      1
 18355  12721  12723      1
 18356  12722  12724      1
 18357  12722  12725      1
 18358  12723  12725      1
 18359  12724  12726      1
 18360  12725  12838      1
 18361  12726  12727      1
 18362  12727  12732      1
 18363  12728  12730      1
 18364  12728  12731      1
 18365  12728  12838      1
 18366  12729  12731      1
 18367  12730  12844      1
 18368  12731  12732      1
 18369  12732  12733      1
 18370  12733  12734      1
 18371  12733  12736      1
 18372  12735  12737      1
 18373  12736  12737      1
 18374  12736  12738      1
 18375  12738  12739      1
 18376  12738  12847      1
 18377  12739  12740      1
 18378  12739  12852      1
 18379  12740  12741      1
 18380  12741  12742      1
 18381  12742  12744      1
 18382  12742  12746      1
 18383  12743  12746      1
 18384  12743  12856      1
 18385  12743  12857      1
 18386  12744  12747      1
 18387  12745  12748      1
 18388  12745  12857      1
 18389  12746  12749      1
 18390  12747  12750      1
 18391  12748  12751      1
 18392  12749  12750      1
 18393  12749  12752      1
 18394  12751  12752      1
 18395  12751  12753      1
 18396  12752  12755      1
 18397  12753  12754      1
 18398  12754  12757      1
 18399  12755  12758      1
 18400  12755  12759      1
 18401  12756  12758      1
 18402  12757  12759      1
 18403  12758  12761      1
 18404  12759  12760      1
 18405  12760  12762      1
 18406  12760  12763      1
 18407  12761  12763      1
 18408  12761  12871      1
 18409  12762  12764      1
 18410  12763  12765      1
 18411  12764  12766      1
 18412  12765  12766      1
 18413  12765  12768      1
 18414  12766  12767      1
 18415  12767  12771      1
 18416  12768  12770      1
 18417  12768  12772      1
 18418  12769  12772      1
 18419  12770  12877      1
 18420  12771  12773      1
 18421  12772  12881      1
 18422  12773  12774      1
 18423  12773  12777      1
 18424  12774  12776      1
 18425  12775  12776      1
 18426  12776  12780      1
 18427  12777  12781      1
 18428  12778  12779      1
 18429  12778  12881      1
 18430  12779  12780      1
 18431  12780  12781      1
 18432  12781  12783      1
 18433  12782  12783      1
 18434  12783  12784      1
 18435  12784  12786      1
 18436  12784  12787      1
 18437  12785  12786      1
 18438  12786  12788      1
 18439  12787  12891      1
 18440  12787  12892      1
 18441  12788  12789      1
 18442  12789  12791      1
 18443  12792  12793      1
 18444  12792  12796      1
 18445  12793  12794      1
 18446  12793  12901      1
 18447  12794  12798      1
 18448  12794  12896      1
 18449  12795  12797      1
 18450  12795  12896      1
 18451  12796  12799      1
 18452  12797  12798      1
 18453  12798  12802      1
 18454  12799  12800      1
 18455  12800  12901      1
 18456  12800  12904      1
 18457  12801  12802      1
 18458  12801  12901      1
 18459  12801  12905      1
 18460  12802  12803      1
 18461  12803  12806      1
 18462  12804  12805      1
 18463  12805  12806      1
 18464  12805  12807      1
 18465  12806  12808      1
 18466  12807  12809      1
 18467  12808  12810      1
 18468  12809  12912      1
 18469  12811  12813      1
 18470  12812  12814      1
 18471  12812  12917      1
 18472  12813  12814      1
 18473  12813  12815      1
 18474  12814  12817      1
 18475  12815  12820      1
 18476  12816  12817      1
 18477  12816  12923      1
 18478  12817  12819      1
 18479  12818  12820      1
 18480  12818  12821      1
 18481  12819  12822      1
 18482  12820  12823      1
 18483  12821  12825      1
 18484  12822  12824      1
 18485  12823  12826      1
 18486  12824  12826      1
 18487  12824  12827      1
 18488  12825  12826      1
 18489  12826  12828      1
 18490  12827  12829      1
 18491  12828  12830      1
 18492  12828  12832      1
 18493  12829  12831      1
 18494  12831  12929      1
 18495  12832  12833      1
 18496  12833  12834      1
 18497  12835  12836      1
 18498  12836  12837      1
 18499  12837  12839      1
 18500  12837  12938      1
 18501  12838  12840      1
 18502  12839  12840      1
 18503  12839  12841      1
 18504  12841  12842      1
 18505  12841  12944      1
 18506  12842  12843      1
 18507  12842  12846      1
 18508  12843  12844      1
 18509  12845  12846      1
 18510  12846  12848      1
 18511  12846  12849      1
 18512  12847  12849      1
 18513  12848  12850      1
 18514  12848  12948      1
 18515  12849  12851      1
 18516  12850  12853      1
 18517  12850  12952      1
 18518  12851  12852      1
 18519  12851  12854      1
 18520  12852  12857      1
 18521  12853  12854      1
 18522  12853  12858      1
 18523  12854  12855      1
 18524  12855  12856      1
 18525  12858  12859      1
 18526  12858  12957      1
 18527  12859  12860      1
 18528  12859  12861      1
 18529  12860  12862      1
 18530  12860  12959      1
 18531  12861  12863      1
 18532  12862  12865      1
 18533  12863  12865      1
 18534  12863  12866      1
 18535  12865  12867      1
 18536  12866  12868      1
 18537  12867  12868      1
 18538  12867  12963      1
 18539  12868  12869      1
 18540  12869  12873      1
 18541  12870  12872      1
 18542  12870  12963      1
 18543  12872  12874      1
 18544  12872  12875      1
 18545  12873  12875      1
 18546  12874  12876      1
 18547  12876  12877      1
 18548  12877  12879      1
 18549  12878  12882      1
 18550  12878  12975      1
 18551  12879  12880      1
 18552  12879  12883      1
 18553  12880  12885      1
 18554  12881  12883      1
 18555  12882  12886      1
 18556  12883  12887      1
 18557  12884  12885      1
 18558  12884  12886      1
 18559  12884  12976      1
 18560  12885  12888      1
 18561  12886  12887      1
 18562  12887  12889      1
 18563  12888  12985      1
 18564  12889  12890      1
 18565  12889  12891      1
 18566  12890  12986      1
 18567  12892  12893      1
 18568  12894  12998      1
 18569  12895  12996      1
 18570  12895  13000      1
 18571  12897  12898      1
 18572  12898  12899      1
 18573  12898  12903      1
 18574  12899  12900      1
 18575  12899  12901      1
 18576  12902  12903      1
 18577  12902  13007      1
 18578  12903  12906      1
 18579  12903  13006      1
 18580  12904  12907      1
 18581  12905  12909      1
 18582  12906  12907      1
 18583  12906  12910      1
 18584  12907  12908      1
 18585  12908  12909      1
 18586  12908  12912      1
 18587  12909  12911      1
 18588  12910  12913      1
 18589  12910  13014      1
 18590  12911  12915      1
 18591  12912  12914      1
 18592  12913  12914      1
 18593  12913  12916      1
 18594  12914  12918      1
 18595  12915  12917      1
 18596  12916  12919      1
 18597  12916  13018      1
 18598  12917  12918      1
 18599  12918  12920      1
 18600  12919  12920      1
 18601  12919  12921      1
 18602  12920  12922      1
 18603  12922  12923      1
 18604  12924  12925      1
 18605  12924  13031      1
 18606  12924  13033      1
 18607  12925  12926      1
 18608  12925  12928      1
 18609  12927  12928      1
 18610  12927  13033      1
 18611  12928  12930      1
 18612  12929  12932      1
 18613  12930  12931      1
 18614  12930  12934      1
 18615  12931  12935      1
 18616  12932  12933      1
 18617  12933  12934      1
 18618  12934  12936      1
 18619  12935  12936      1
 18620  12936  12937      1
 18621  12937  12938      1
 18622  12938  12939      1
 18623  12939  12940      1
 18624  12939  12941      1
 18625  12940  12942      1
 18626  12941  12943      1
 18627  12941  12944      1
 18628  12942  12943      1
 18629  12942  13048      1
 18630  12943  12945      1
 18631  12944  12946      1
 18632  12945  12947      1
 18633  12946  12947      1
 18634  12946  12948      1
 18635  12947  12949      1
 18636  12948  12951      1
 18637  12949  12950      1
 18638  12949  12951      1
 18639  12950  13051      1
 18640  12950  13055      1
 18641  12951  12952      1
 18642  12952  12954      1
 18643  12953  12955      1
 18644  12953  13057      1
 18645  12954  12955      1
 18646  12954  12957      1
 18647  12956  12958      1
 18648  12957  12959      1
 18649  12960  12961      1
 18650  12960  12962      1
 18651  12961  13071      1
 18652  12963  12964      1
 18653  12964  12967      1
 18654  12965  12966      1
 18655  12965  12967      1
 18656  12965  13076      1
 18657  12967  12968      1
 18658  12968  12969      1
 18659  12969  12971      1
 18660  12970  12973      1
 18661  12970  12975      1
 18662  12971  12973      1
 18663  12971  12974      1
 18664  12972  12973      1
 18665  12972  13084      1
 18666  12973  12977      1
 18667  12974  13086      1
 18668  12975  12976      1
 18669  12976  12977      1
 18670  12977  12978      1
 18671  12977  12979      1
 18672  12978  12980      1
 18673  12978  12981      1
 18674  12979  12982      1
 18675  12980  12983      1
 18676  12981  12982      1
 18677  12981  12984      1
 18678  12982  12987      1
 18679  12983  12984      1
 18680  12984  12989      1
 18681  12985  12988      1
 18682  12986  12988      1
 18683  12987  12990      1
 18684  12988  12991      1
 18685  12989  12990      1
 18686  12989  12992      1
 18687  12990  12995      1
 18688  12991  12994      1
 18689  12991  12996      1
 18690  12992  12999      1
 18691  12993  12995      1
 18692  12993  12997      1
 18693  12994  13000      1
 18694  12995  13001      1
 18695  12996  12998      1
 18696  12997  12998      1
 18697  12999  13001      1
 18698  12999  13104      1
 18699  13002  13003      1
 18700  13002  13106      1
 18701  13003  13004      1
 18702  13003  13005      1
 18703  13004  13006      1
 18704  13005  13008      1
 18705  13005  13009      1
 18706  13006  13010      1
 18707  13007  13009      1
 18708  13008  13013      1
 18709  13009  13011      1
 18710  13010  13012      1
 18711  13010  13014      1
 18712  13011  13013      1
 18713  13012  13015      1
 18714  13014  13018      1
 18715  13015  13016      1
 18716  13015  13019      1
 18717  13016  13020      1
 18718  13018  13019      1
 18719  13019  13021      1
 18720  13020  13021      1
 18721  13021  13022      1
 18722  13022  13024      1
 18723  13023  13025      1
 18724  13024  13025      1
 18725  13024  13027      1
 18726  13025  13026      1
 18727  13026  13028      1
 18728  13026  13030      1
 18729  13027  13029      1
 18730  13029  13030      1
 18731  13029  13031      1
 18732  13030  13032      1
 18733  13032  13033      1
 18734  13034  13035      1
 18735  13034  13037      1
 18736  13035  13038      1
 18737  13036  13037      1
 18738  13037  13039      1
 18739  13038  13039      1
 18740  13039  13040      1
 18741  13040  13042      1
 18742  13041  13042      1
 18743  13042  13043      1
 18744  13043  13044      1
 18745  13043  13046      1
 18746  13045  13046      1
 18747  13046  13047      1
 18748  13047  13048      1
 18749  13047  13049      1
 18750  13048  13050      1
 18751  13049  13051      1
 18752  13050  13053      1
 18753  13052  13053      1
 18754  13052  13054      1
 18755  13053  13055      1
 18756  13054  13056      1
 18757  13055  13057      1
 18758  13056  13058      1
 18759  13057  13059      1
 18760  13058  13059      1
 18761  13058  13061      1
 18762  13059  13060      1
 18763  13060  13062      1
 18764  13061  13063      1
 18765  13063  13064      1
 18766  13064  13065      1
 18767  13064  13066      1
 18768  13065  13067      1
 18769  13066  13068      1
 18770  13066  13070      1
 18771  13067  13069      1
 18772  13067  13070      1
 18773  13070  13071      1
 18774  13071  13073      1
 18775  13072  13073      1
 18776  13073  13074      1
 18777  13074  13075      1
 18778  13074  13076      1
 18779  13075  13078      1
 18780  13076  13081      1
 18781  13077  13078      1
 18782  13077  13079      1
 18783  13079  13080      1
 18784  13080  13082      1
 18785  13081  13083      1
 18786  13081  13084      1
 18787  13082  13083      1
 18788  13082  13085      1
 18789  13083  13086      1
 18790  13085  13088      1
 18791  13086  13087      1
 18792  13087  13089      1
 18793  13088  13090      1
 18794  13089  13090      1
 18795  13089  13092      1
 18796  13090  13093      1
 18797  13091  13093      1
 18798  13092  13095      1
 18799  13093  13094      1
 18800  13093  13096      1
 18801  13095  13096      1
 18802  13095  13098      1
 18803  13096  13099      1
 18804  13097  13099      1
 18805  13098  13100      1
 18806  13099  13101      1
 18807  13100  13101      1
 18808  13101  13103      1
 18809  13103  13105      1
 18810  13107  13108     du
 18811  13108  13109     du
 18812  13109  13110     du
 18813  13110  13107     du
 18814  13111  13112     du
 18815  13112  13113     du
 18816  13113  13114     du
 18817  13114  13111     du
 18818  13110  13114     du
 18819  13111  13107     du
 18820  13109  13113     du
 18821  13112  13108     du
