@<TRIPOS>MOLECULE
LAMMPS data file via write_data, version 29 Oct 2020, timestep = 1000 > lmp2SYBYLmol2 v3.4 / 25 September 2024 w/remove_PBC_bonds=True comments=
  4702 4793    0    0    0
SMALL
NO_CHARGES
****
Energy = 0

@<TRIPOS>ATOM
      1 C           17.3618   -14.0250    -8.5291 C       0      r0     0.1602
      2 C           17.7553   -12.7069    -8.0516 C       0      r0    -0.0041
      3 C          -18.5298   -12.4972    -7.1438 C       0      r0    -0.0220
      4 C          -17.5230   -13.4033    -6.5651 C       0      r0     0.1639
      5 C          -16.7756   -12.7424    -5.3081 C       0      r0     0.0100
      6 O          -17.2004   -14.4711    -6.9195 O       0      r0    -0.5134
      7 O           16.6507   -14.1484    -9.4644 O       0      r0    -0.4830
      8 C          -15.3325   -13.2478    -5.2236 C       5      r5     0.1649
      9 C          -14.6413   -13.8413    -6.2334 C       5      r5    -0.0036
     10 C          -13.3961   -14.1870    -5.6819 C       5      r5    -0.0295
     11 C          -13.3189   -13.7864    -4.2932 C       5      r5     0.0826
     12 O          -14.7602   -13.0127    -4.0130 O       5      r5    -0.4679
     13 C          -12.4125   -13.9523    -3.5051 C       0      r0    -0.0478
     14 C           17.7804   -15.3337    -7.7492 C       0      r0     0.0155
     15 C           13.0972   -16.8423    -8.2253 C       0      r0     0.1468
     16 C           14.3872   -17.2320    -8.0458 C       0      r0     0.0024
     17 C           15.5210   -16.2551    -8.1390 C       0      r0     0.0231
     18 C           16.7335   -16.5110    -7.7836 C       0      r0     0.1650
     19 O           17.1470   -17.6684    -7.3005 O       0      r0    -0.4827
     20 H           17.1523   -11.9294    -8.4556 H       0      r0     0.0981
     21 H          -18.4325   -11.5269    -6.8694 H       0      r0     0.0815
     22 H          -16.9342   -11.6649    -5.2239 H       0      r0     0.0681
     23 H          -17.4341   -12.8800    -4.4414 H       0      r0     0.0596
     24 H          -14.9809   -14.1007    -7.2280 H       0      r0     0.0759
     25 H          -12.5967   -14.5865    -6.2156 H       0      r0     0.0516
     26 H          -11.4613   -14.3877    -3.8448 H       0      r0     0.0327
     27 H          -12.4940   -13.4244    -2.5464 H       0      r0     0.0567
     28 H          -18.5131   -15.7210    -8.0640 H       0      r0     0.1017
     29 H           18.0264   -14.9036    -6.7590 H       0      r0     0.1012
     30 H           14.7397   -18.2507    -7.9992 H       0      r0     0.0828
     31 H           15.3821   -15.1736    -8.3498 H       0      r0     0.1079
     32 C           -4.0764   -17.9566     6.3638 C       0      r0     0.2013
     33 C           -4.3652   -16.6517     7.0848 C       0      r0    -0.0105
     34 C           -5.5262   -16.3750     7.5666 C       0      r0    -0.0293
     35 C           -6.7755   -17.0786     7.1802 C       0      r0     0.1734
     36 C           -8.0702   -16.4145     7.9109 C       0      r0    -0.0121
     37 O           -6.8263   -18.0519     6.5513 O       0      r0    -0.4942
     38 O           -3.5533   -18.0559     5.3492 O       0      r0    -0.5075
     39 C           -8.1321   -14.9833     7.3826 C       5      r5     0.1193
     40 C           -8.0446   -14.8995     6.0490 C       5      r5    -0.0292
     41 C           -8.2403   -13.5246     5.7481 C       5      r5    -0.0269
     42 C           -8.4717   -12.8439     6.9703 C       5      r5     0.0850
     43 O           -8.3692   -13.8852     8.2093 O       5      r5    -0.4775
     44 C           -8.6207   -11.5168     7.0075 C       0      r0    -0.0536
     45 C           -4.5692    18.6618     7.0843 C       0      r0     0.0259
     46 C           -0.5135    16.5204     7.0224 C       0      r0     0.2230
     47 C           -1.7936    16.3922     6.1675 C       0      r0    -0.0026
     48 C           -3.0093    17.1712     6.2733 C       0      r0     0.0056
     49 C           -3.3887    17.8893     7.3430 C       0      r0     0.1589
     50 O           -2.7795    18.0500     8.5265 O       0      r0    -0.5092
     51 H           -3.4627   -16.0558     7.2631 H       0      r0     0.0625
     52 H           -5.6078   -15.4988     8.1588 H       0      r0     0.0491
     53 H           -8.9979   -16.9930     7.5520 H       0      r0     0.1006
     54 H           -8.0804   -16.4495     9.0059 H       0      r0     0.0505
     55 H           -7.9924   -15.7829     5.3610 H       0      r0     0.0593
     56 H           -8.2008   -13.0926     4.7893 H       0      r0     0.0637
     57 H           -8.6724   -11.0528     6.0399 H       0      r0     0.0547
     58 H           -8.7942   -10.9452     7.8977 H       0      r0     0.0463
     59 H           -5.1370    18.7662     8.0370 H       0      r0     0.0776
     60 H           -5.3037    18.2352     6.4089 H       0      r0     0.0947
     61 H           -1.5793    15.8163     5.2995 H       0      r0     0.0629
     62 H           -3.7044    17.2869     5.4240 H       0      r0     0.0753
     63 C          -10.4432    -6.0823    -1.2991 C       5      r5     0.1324
     64 O          -11.8270    -5.8961    -1.3030 O       5      r5    -0.4898
     65 C          -11.6487    -4.2856    -1.5174 C       5      r5     0.0962
     66 C          -10.3821    -3.7587    -1.5240 C       5      r5    -0.0438
     67 C           -9.5850    -4.9232    -1.3116 C       5      r5    -0.0246
     68 C           -9.8949    -7.3504    -1.3131 C       0      r0    -0.0030
     69 C          -12.6684    -2.0717    -1.9569 C       5      r5     0.1405
     70 O          -13.5685    -1.3471    -2.7542 O       5      r5    -0.4701
     71 C          -13.0832     0.1213    -2.2999 C       5      r5     0.2128
     72 C          -12.0365    -0.0808    -1.2622 C       5      r5     0.0082
     73 C          -11.7224    -1.4064    -1.1372 C       5      r5    -0.0167
     74 C          -12.7066    -3.4993    -1.8789 C       0      r0     0.0301
     75 C           -8.5118    -7.7456    -1.1911 C       5      r5     0.1290
     76 C           -8.1593    -9.1346    -1.1328 C       5      r5    -0.0267
     77 C           -6.7687    -9.3153    -0.9830 C       5      r5    -0.0139
     78 C           -6.3866    -7.9315    -0.9258 C       5      r5     0.1021
     79 O           -7.5333    -6.8157    -1.1024 O       5      r5    -0.4817
     80 C           -5.1343    -7.8630    -0.7794 C       0      r0    -0.0284
     81 H          -10.0469    -2.7787    -1.5662 H       0      r0     0.0475
     82 H           -8.5349    -4.9275    -1.1826 H       0      r0     0.0824
     83 H          -10.5018    -8.2703    -1.3734 H       0      r0     0.0434
     84 H          -11.4975     0.7253    -0.7761 H       0      r0     0.0923
     85 H          -11.0683    -1.8530    -0.4386 H       0      r0     0.0493
     86 H          -13.6113    -4.0365    -2.0364 H       0      r0     0.1433
     87 H           -8.9091    -9.9081    -1.1660 H       0      r0     0.0405
     88 H           -6.2736   -10.2341    -0.8598 H       0      r0     0.0812
     89 H           -4.5312    -8.7396    -0.7076 H       0      r0     0.1137
     90 H           -4.5640    -7.0160    -0.6566 H       0      r0     0.0519
     91 C           16.1816    -2.2103    -8.1232 C       5      r5     0.1562
     92 O           16.8410    -0.9927    -8.3781 O       5      r5    -0.4917
     93 C           18.0845    -1.3131    -7.5091 C       5      r5     0.1086
     94 C           18.0995    -2.5220    -6.9028 C       5      r5    -0.0043
     95 C           16.9068    -3.1320    -7.2816 C       5      r5     0.0148
     96 C           14.9046    -2.5064    -8.6138 C       0      r0     0.0210
     97 C          -16.9818    -0.3819    -6.6345 C       5      r5     0.1302
     98 O          -16.3382     0.7652    -6.2242 O       5      r5    -0.4988
     99 C          -15.3116    -0.0709    -5.2679 C       5      r5     0.1298
    100 C          -15.3646    -1.4763    -5.4194 C       5      r5    -0.0105
    101 C          -16.4959    -1.6562    -6.2797 C       5      r5    -0.0083
    102 C          -18.2125    -0.2969    -7.2875 C       0      r0     0.0050
    103 C           14.1593    -3.7063    -8.3854 C       5      r5     0.1459
    104 C           12.9029    -3.7954    -8.9761 C       5      r5    -0.0322
    105 C           12.2125    -4.9542    -8.5919 C       5      r5    -0.0477
    106 C           13.2444    -5.5450    -7.7863 C       5      r5     0.0946
    107 O           14.5816    -4.7385    -7.5986 O       5      r5    -0.4601
    108 C           12.8407    -6.6293    -7.3062 C       0      r0    -0.0522
    109 H          -18.5135    -2.9271    -6.1602 H       0      r0     0.1253
    110 H           16.5463    -4.1245    -6.9246 H       0      r0     0.1066
    111 H           14.4708    -1.7191    -9.2521 H       0      r0     0.0524
    112 H          -14.7112    -2.1237    -4.8465 H       0      r0     0.0937
    113 H          -16.8206    -2.6305    -6.5957 H       0      r0     0.0988
    114 H          -18.5568     0.6823    -7.5929 H       0      r0     0.0670
    115 H           12.4457    -3.0177    -9.5204 H       0      r0     0.0385
    116 H           11.1748    -5.2275    -8.8078 H       0      r0     0.0488
    117 H           11.8941    -7.0436    -7.4136 H       0      r0     0.0360
    118 H           13.5186    -7.2975    -6.8154 H       0      r0     0.0553
    119 C           15.6493   -13.7123    12.7805 C       0      r0    -0.0070
    120 O           15.6385   -11.9237    10.4457 O       0      r0    -0.4752
    121 C           15.2507   -11.0131    11.4260 C       0      r0     0.1414
    122 C           15.1567   -11.2160    12.7796 C       0      r0    -0.0336
    123 C           15.3196   -12.5012    13.3821 C       0      r0    -0.0401
    124 C           16.0007   -14.8664    12.2258 C       0      r0    -0.0225
    125 C           14.9927    -9.6409    11.2732 C       0      r0    -0.0197
    126 H           14.8509   -10.3808    13.4288 H       0      r0     0.0343
    127 H           15.0964   -12.6566    14.4623 H       0      r0     0.0659
    128 H           16.3348   -15.6058    11.5183 H       0      r0     0.0788
    129 H           14.7221    -9.0314    12.1247 H       0      r0     0.0460
    130 C          -17.3806    -7.7688     9.3539 C       5      r5     0.1397
    131 O          -15.9734    -8.2255     9.7399 O       5      r5    -0.4557
    132 C          -15.8990    -7.3723    10.8276 C       5      r5     0.1635
    133 C          -17.0160    -6.5280    11.0421 C       5      r5    -0.0284
    134 C          -18.0402    -6.7390    10.1156 C       5      r5    -0.0541
    135 C          -18.1831    -8.0734     8.3894 C       0      r0     0.1429
    136 C          -14.8377    -7.3431    11.6658 C       0      r0     0.1922
    137 H          -17.1182    -5.7918    11.8355 H       0      r0     0.0975
    138 H           18.2083    -6.3872    10.0639 H       0      r0     0.0388
    139 H           18.1462    -7.6446     8.2695 H       0      r0     0.0673
    140 H          -14.8841    -6.6273    12.5321 H       0      r0     0.1196
    141 C          -13.2841    -9.2324    17.9934 C       0      r0     0.0736
    142 O          -12.6670   -10.2480    16.7111 O       0      r0    -0.4479
    143 C          -13.3363   -11.5428    17.6042 C       0      r0     0.0985
    144 C          -14.0603   -11.2648   -18.5505 C       0      r0    -0.0186
    145 C          -13.9374    -9.8670   -18.2765 C       0      r0    -0.0414
    146 C          -13.2382    -7.9268    18.0252 C       0      r0    -0.0289
    147 C          -13.2266   -12.7886    17.2406 C       0      r0     0.0101
    148 H          -14.4540   -12.0600   -17.8800 H       0      r0     0.1067
    149 H          -14.2696    -9.4428   -17.3813 H       0      r0     0.0451
    150 H          -13.3039    -6.8535    18.2410 H       0      r0     0.1118
    151 H          -13.2640   -13.8447    17.1211 H       0      r0     0.1255
    152 C          -13.0231    -2.0517   -15.3733 C       6      r6     0.0827
    153 C          -13.8285    -3.2871   -15.3704 C       6      r6    -0.0144
    154 C          -13.0016    -4.0578   -14.7068 C       6      r6    -0.0156
    155 C          -11.7900    -3.3198   -14.2283 C       6      r6     0.1378
    156 C           -9.5632    -2.4906   -15.4850 C       5      r5     0.1575
    157 O           -9.6768    -1.1470   -15.8839 O       5      r5    -0.4643
    158 C          -10.8756    -1.1117   -16.6370 C       5      r5     0.1346
    159 C          -11.7889    -2.3176   -16.4013 C       6      r6    -0.0001
    160 C          -10.8793    -3.2588   -15.5163 C       6      r6     0.0275
    161 C          -11.3774    -0.1564   -17.3689 C       0      r0     0.0058
    162 C          -13.9163    -0.9095   -15.8531 C       0      r0     0.0008
    163 C          -11.1668    -4.0867   -13.0522 C       0      r0     0.0153
    164 C           -8.4544    -3.0844   -15.1026 C       0      r0     0.0090
    165 O          -12.1455    -1.9413   -13.9821 O       5      r5    -0.4530
    166 C          -15.1872    -1.0729    18.1684 C       0      r0     0.0026
    167 C          -13.9934    -1.7411    17.8201 C       0      r0    -0.0315
    168 C          -12.7442    -1.3657    18.4585 C       0      r0    -0.0124
    169 C          -12.6030    -0.2540   -18.1987 C       0      r0     0.1426
    170 O          -13.5270     0.7916   -18.1999 O       0      r0    -0.4682
    171 O           -9.3290    -5.4146   -14.7140 O       5      r5    -0.4919
    172 C           -8.2800    -4.4643   -14.6685 C       5      r5     0.1258
    173 C           -7.0752    -4.8085   -14.0760 C       5      r5    -0.0283
    174 C           -7.2224    -6.1311   -13.7165 C       5      r5    -0.0290
    175 C           -8.5811    -6.6260   -14.0055 C       5      r5     0.1031
    176 O          -16.3479    -0.3234   -15.5000 O       5      r5    -0.4592
    177 C          -17.1898    -0.4291   -14.1416 C       5      r5     0.0913
    178 C          -16.3524    -1.0088   -13.1196 C       5      r5    -0.0191
    179 C          -15.0698    -1.1564   -13.6548 C       5      r5    -0.0045
    180 C          -15.1977    -0.7763   -14.9602 C       5      r5     0.1570
    181 C          -12.3182    -4.4844   -12.0833 C       5      r5     0.1504
    182 C          -12.8998    -5.7375   -12.2511 C       5      r5    -0.0326
    183 C          -13.9509    -5.8139   -11.4260 C       5      r5    -0.0556
    184 C          -13.9981    -4.5020   -10.7061 C       5      r5     0.0743
    185 O          -12.7792    -3.5952   -11.1965 O       5      r5    -0.4560
    186 C          -18.3938    -0.0844   -13.9479 C       0      r0    -0.0439
    187 C           -9.0638    -7.6971   -13.7209 C       0      r0    -0.0288
    188 H          -14.8410    -3.5033   -15.7470 H       0      r0     0.1237
    189 H          -13.1906    -5.1051   -14.4642 H       0      r0     0.0514
    190 H          -12.2031    -2.6863   -17.2834 H       0      r0     0.0436
    191 H          -10.6823    -4.2710   -15.9254 H       0      r0     0.0779
    192 H          -10.7008     0.7403   -17.2873 H       0      r0     0.0774
    193 H          -13.3998     0.0719   -15.8513 H       0      r0     0.0983
    194 H          -14.1980    -0.9778   -16.9130 H       0      r0     0.0962
    195 H          -10.5418    -4.9662   -13.3962 H       0      r0     0.1062
    196 H          -10.3850    -3.5371   -12.5542 H       0      r0     0.1258
    197 H           -7.5348    -2.4664   -15.1082 H       0      r0     0.0569
    198 H          -13.9667    -2.5284    17.0708 H       0      r0     0.0402
    199 H          -11.8152    -1.9136    18.4343 H       0      r0     0.0336
    200 H           -6.1685    -4.2277   -13.9250 H       0      r0     0.0459
    201 H           -6.4174    -6.6416   -13.1762 H       0      r0     0.0731
    202 H          -16.5656    -1.0905   -12.0584 H       0      r0     0.1044
    203 H          -14.1434    -1.4841   -13.1526 H       0      r0     0.1059
    204 H          -12.6279    -6.4559   -13.0218 H       0      r0     0.0774
    205 H          -14.6314    -6.6727   -11.3930 H       0      r0     0.0278
    206 H           18.4363    -0.2617   -12.9776 H       0      r0     0.0490
    207 H           18.2891     0.3636   -14.7555 H       0      r0     0.0603
    208 H           -8.5494    -8.4640   -13.1776 H       0      r0     0.0294
    209 H          -10.0975    -8.0194   -13.8744 H       0      r0     0.1093
    210 C          -18.6384    -5.1452   -13.3241 C       6      r6     0.0609
    211 C          -18.1492    -6.4381   -13.8295 C       6      r6    -0.0380
    212 C           18.0134    -6.9810   -14.2263 C       6      r6    -0.0226
    213 C           16.7928    -6.0897   -13.8104 C       6      r6     0.1518
    214 C           15.7612    -5.4483   -11.4465 C       5      r5     0.1736
    215 O           16.2041    -4.2484   -11.0137 O       5      r5    -0.4903
    216 C           17.5963    -4.2212   -11.1541 C       5      r5     0.1395
    217 C           18.1028    -5.4635   -11.8998 C       6      r6    -0.0117
    218 C           16.7996    -6.2318   -12.1850 C       6      r6     0.0214
    219 C           18.3441    -3.1940   -10.6882 C       0      r0     0.0212
    220 C          -17.4338    -4.1113   -13.6032 C       0      r0    -0.0301
    221 C           15.4712    -6.7152   -14.4741 C       0      r0     0.0113
    222 C           14.5951    -6.0368   -10.9621 C       0      r0     0.0140
    223 O           17.0473    -4.8018   -14.0765 O       5      r5    -0.4506
    224 C          -15.5412    -2.3680   -10.2817 C       5      r5     0.1192
    225 C          -15.3598    -3.7192   -10.6499 C       5      r5    -0.0063
    226 C          -16.7013    -4.1831   -10.8334 C       5      r5    -0.0515
    227 C          -17.5580    -3.0889   -10.6401 C       5      r5     0.1168
    228 O          -17.0708    -1.8515   -10.2263 O       5      r5    -0.4675
    229 O           14.5950    -8.2164   -12.1330 O       5      r5    -0.4954
    230 C           14.0819    -7.3418   -11.2005 C       5      r5     0.1197
    231 C           12.8452    -7.7062   -10.5271 C       5      r5    -0.0338
    232 C           12.4064    -8.9598   -10.8890 C       5      r5    -0.0382
    233 C           13.4385    -9.3016   -11.8528 C       5      r5     0.0815
    234 O          -16.4043    -4.5835   -15.8826 O       5      r5    -0.4815
    235 C          -16.8210    -3.9952   -17.3199 C       5      r5     0.1045
    236 C          -17.6940    -2.8617   -17.0178 C       5      r5     0.0021
    237 C          -18.0517    -2.9166   -15.6626 C       5      r5     0.0079
    238 C          -17.2778    -3.8581   -15.1050 C       5      r5     0.1576
    239 C           14.3621    -5.6830   -14.6784 C       0      r0     0.1500
    240 C           13.2832    -5.7562   -13.9686 C       0      r0    -0.0073
    241 C           12.1215    -4.7866   -14.1690 C       0      r0    -0.0004
    242 C           12.1367    -3.6038   -14.8245 C       0      r0     0.1263
    243 O           14.5730    -4.6158   -15.7653 O       0      r0    -0.4520
    244 C          -16.7187    -4.4457   -18.4391 C       0      r0    -0.0310
    245 C           13.1398   -10.4368   -12.3049 C       0      r0    -0.0618
    246 H          -17.1486    -6.7893   -14.0442 H       0      r0     0.0489
    247 H           18.0106    -7.9131   -14.7524 H       0      r0     0.0532
    248 H          -18.5134    -6.1083   -11.3530 H       0      r0     0.0240
    249 H           16.8328    -7.2456   -11.9882 H       0      r0     0.0646
    250 H           17.6881    -2.4069   -10.3535 H       0      r0     0.1188
    251 H          -17.7234    -3.1555   -13.0621 H       0      r0     0.0429
    252 H          -16.4996    -4.4856   -13.1498 H       0      r0     0.0450
    253 H           15.6138    -7.2598   -15.4075 H       0      r0     0.1284
    254 H           14.9947    -7.5294   -13.8011 H       0      r0     0.0965
    255 H           13.9666    -5.4110   -10.3117 H       0      r0     0.0735
    256 H          -13.8597    -4.5676    -9.6040 H       0      r0     0.0914
    257 H          -16.9239    -5.1278   -11.2147 H       0      r0     0.0188
    258 H           12.3458    -7.0575    -9.8311 H       0      r0     0.0427
    259 H           11.4511    -9.4010   -10.5742 H       0      r0     0.0767
    260 H          -18.2147    -2.2335   -17.6943 H       0      r0     0.0787
    261 H           18.5114    -2.3325   -15.1414 H       0      r0     0.0481
    262 H           13.3856    -6.5551   -13.2577 H       0      r0     0.0659
    263 H           11.2528    -4.9884   -13.6448 H       0      r0     0.0917
    264 H          -17.2334    -4.0577    18.0967 H       0      r0     0.0666
    265 H          -16.1065    -5.3505   -18.6039 H       0      r0     0.0658
    266 H           12.2471   -11.0580   -12.0427 H       0      r0     0.0364
    267 H           13.8087   -10.8459   -13.0652 H       0      r0     0.0510
    268 C          -12.2607     2.3684   -11.2735 C       6      r6    -0.0317
    269 C          -12.0621     2.0805    -9.9014 C       6      r6    -0.0479
    270 C          -11.6384     0.8340    -9.4699 C       6      r6    -0.0525
    271 C          -11.3527    -0.1050   -10.5052 C       6      r6    -0.0185
    272 C           -9.7781     0.8618   -12.2677 C       5      r5     0.1650
    273 O           -9.8865     2.0973   -12.8956 O       5      r5    -0.4839
    274 C          -11.2709     2.1611   -13.1670 C       5      r5     0.1396
    275 C          -12.0916     1.3905   -12.3379 C       6      r6     0.0019
    276 C          -11.0460     0.1186   -11.9586 C       6      r6     0.0167
    277 C          -11.8403     2.5844   -14.4201 C       0      r0    -0.0000
    278 C          -12.9952     3.6751   -11.5666 C       0      r0    -0.0211
    279 C          -11.3588    -1.3046    -9.8237 C       0      r0     0.0084
    280 C           -8.5089     0.3383   -12.0361 C       0      r0     0.0277
    281 O           -5.5977     2.1581    -7.2205 O       0      r0    -0.5746
    282 C          -15.3813     2.6577   -14.9265 C       5      r5     0.1227
    283 C          -14.7078     2.9874   -16.1662 C       5      r5    -0.0131
    284 C          -13.3045     2.9899   -15.9934 C       5      r5    -0.0262
    285 C          -13.2508     2.6473   -14.6089 C       5      r5     0.1316
    286 O          -14.3308     2.4217   -13.7598 O       5      r5    -0.4779
    287 O           -9.0848    -1.9932   -11.5276 O       0      r0    -0.5742
    288 C           -8.1691    -0.9913   -11.6407 C       0      r0     0.1574
    289 C           -6.8000    -0.9305   -11.6031 C       0      r0    -0.0131
    290 C           -5.8779    -2.0574   -11.3888 C       0      r0    -0.0319
    291 C           -6.2562    -3.3744   -11.3468 C       0      r0    -0.0007
    292 O          -12.5143     6.1629   -12.0459 O       5      r5    -0.4583
    293 C          -10.9485     6.8179   -12.2174 C       5      r5     0.0874
    294 C           -9.9647     5.8649   -12.0434 C       5      r5    -0.0241
    295 C          -10.7620     4.6904   -11.7542 C       5      r5     0.0069
    296 C          -12.0821     4.9455   -11.7911 C       5      r5     0.1493
    297 C          -12.1294    -1.5642    -8.6409 C       3      r3    -0.0039
    298 C          -12.9014    -1.0691    -7.6643 C       3      r3    -0.0444
    299 C          -12.1373    -2.5070    -6.2519 C       0      r0     0.0199
    300 C          -11.2661    -1.4394    -5.4828 C       0      r0     0.1104
    301 O           -9.7701    -1.7750    -5.2408 O       0      r0    -0.4795
    302 C          -11.7040    -0.4103    -5.0440 C       0      r0    -0.0131
    303 C          -16.6110     2.6379   -14.8831 C       0      r0    -0.0133
    304 H          -12.3004     2.7846    -9.1155 H       0      r0     0.0862
    305 H          -11.4388     0.6559    -8.4056 H       0      r0     0.0485
    306 H          -13.0490     1.0415   -12.7308 H       0      r0     0.1066
    307 H          -11.1321    -0.8770   -12.4624 H       0      r0     0.1514
    308 H          -11.2189     2.8901   -15.2800 H       0      r0     0.0549
    309 H          -13.6654     3.5170   -12.4302 H       0      r0     0.1353
    310 H          -13.5877     4.0537   -10.6760 H       0      r0     0.0921
    311 H           -8.7285    -2.7291   -10.8726 H       0      r0     0.3604
    312 H          -11.0069    -2.1120   -10.4370 H       0      r0     0.1520
    313 H           -7.7111     1.0089   -12.2924 H       0      r0     0.0668
    314 H          -15.1703     3.1251   -17.1117 H       0      r0     0.0520
    315 H          -12.4904     3.1099   -16.6785 H       0      r0     0.0404
    316 H           -6.3551     0.0285   -11.8619 H       0      r0     0.0597
    317 H           -4.8380    -1.9238   -11.2034 H       0      r0     0.0598
    318 H           -8.9100     5.9474   -12.1754 H       0      r0     0.0659
    319 H          -10.3389     3.7351   -11.5291 H       0      r0     0.1038
    320 H          -13.1710    -0.1112    -7.2627 H       0      r0     0.0443
    321 H          -15.9537    -8.8769    -6.1806 H       0      r0     0.3381
    322 H          -12.7769    -0.0947    -5.1411 H       0      r0     0.0634
    323 H          -11.1211     0.3031    -4.4846 H       0      r0     0.0836
    324 H          -17.2525     2.9596   -15.6740 H       0      r0     0.0297
    325 H          -17.0880     2.3350   -14.0099 H       0      r0     0.0944
    326 C          -16.0254    -7.2374    -7.3111 C       6      r6     0.1139
    327 C          -16.8343    -7.0748    -8.5911 C       6      r6    -0.0289
    328 C          -16.8041    -8.0605    -9.5665 C       6      r6    -0.0404
    329 C          -16.0009    -9.0703    -9.0135 C       6      r6     0.0041
    330 C          -14.0862    -9.9575    -7.7926 C       5      r5     0.1597
    331 O          -13.9796    -9.5789    -6.4876 O       5      r5    -0.4810
    332 C          -13.7226    -8.1745    -6.5449 C       5      r5     0.1358
    333 C          -14.5313    -7.5987    -7.6765 C       6      r6    -0.0093
    334 C          -14.5665    -8.8682    -8.6548 C       6      r6    -0.0011
    335 C          -12.9501    -7.4462    -5.7263 C       0      r0    -0.0093
    336 C          -16.0368    -5.9333    -6.5946 C       0      r0     0.0231
    337 C          -16.5526   -10.4996    -9.1182 C       0      r0    -0.0225
    338 C          -13.6807   -11.1903    -8.3471 C       0      r0     0.0098
    339 O          -16.6027    -8.1534    -6.3349 O       0      r0    -0.5546
    340 C          -12.3095    -3.8792    -6.0222 C       5      r5     0.1376
    341 C          -11.6180    -4.3272    -4.8073 C       5      r5    -0.0091
    342 C          -11.8375    -5.6783    -4.6088 C       5      r5    -0.0306
    343 C          -12.6339    -6.0362    -5.6998 C       5      r5     0.1081
    344 O          -13.0626    -5.0147    -6.6311 O       5      r5    -0.4960
    345 O          -14.2273   -10.6915   -10.7675 O       5      r5    -0.4950
    346 C          -13.7787   -11.5422    -9.7103 C       5      r5     0.1236
    347 C          -13.4504   -12.8720   -10.0125 C       5      r5    -0.0179
    348 C          -13.6031   -13.1437   -11.3892 C       5      r5    -0.0219
    349 C          -14.0294   -11.8968   -11.8980 C       5      r5     0.0822
    350 O          -17.2991    -4.3761    -5.5840 O       0      r0    -0.4811
    351 C           17.4606    -4.7385    -4.4419 C       0      r0     0.1518
    352 C           17.5277    -5.8485    -5.3410 C       0      r0    -0.0262
    353 C           18.6318    -6.1689    -6.1265 C       0      r0     0.0041
    354 C          -17.4392    -5.4254    -6.1225 C       0      r0     0.1851
    355 C          -18.1105   -10.3450    -9.3444 C       5      r5     0.1345
    356 C          -18.4423   -10.5770   -10.6303 C       5      r5    -0.0367
    357 C           17.5099   -10.2520   -10.7419 C       5      r5    -0.0275
    358 C           17.0200    -9.9492    -9.4258 C       5      r5     0.0908
    359 O           18.2912    -9.9095    -8.3951 O       5      r5    -0.4491
    360 C           15.7872    -9.6284    -9.1299 C       0      r0    -0.0435
    361 C          -12.6874    -2.4468    -7.5694 C       3      r3     0.0175
    362 H          -17.4553    -6.2027    -8.7425 H       0      r0     0.0439
    363 H          -17.5452    -8.0815   -10.3451 H       0      r0     0.0497
    364 H          -14.1100    -6.7040    -8.0699 H       0      r0     0.0501
    365 H          -13.9944    -8.7130    -9.5307 H       0      r0     0.0693
    366 H          -12.4969    -8.1727    -5.0336 H       0      r0     0.0648
    367 H          -15.1523    -5.6961    -5.8720 H       0      r0     0.1080
    368 H          -15.5853    -5.1888    -7.2437 H       0      r0     0.0641
    369 H          -15.9305   -11.0350    -9.8644 H       0      r0     0.0942
    370 H          -16.3542   -11.1985    -8.2977 H       0      r0     0.0606
    371 H          -13.2564   -12.0151    -7.7545 H       0      r0     0.0643
    372 H          -10.9828    -3.6530    -4.2200 H       0      r0     0.0768
    373 H          -11.4770    -6.3723    -3.8097 H       0      r0     0.0575
    374 H          -13.0934   -13.6271    -9.3562 H       0      r0     0.0565
    375 H          -13.5280   -14.0803   -11.9368 H       0      r0     0.0499
    376 H           16.5912    -6.4019    -5.3453 H       0      r0     0.0521
    377 H          -18.5841    -7.0734    -6.6521 H       0      r0     0.1032
    378 H          -17.7754   -10.9030   -11.3813 H       0      r0     0.0360
    379 H           16.9210   -10.3112   -11.6159 H       0      r0     0.0561
    380 H           14.9746    -9.5285    -9.8617 H       0      r0     0.0578
    381 H           15.5437    -9.3160    -8.1381 H       0      r0     0.0551
    382 H           -6.0428     1.4578    -7.8630 H       0      r0     0.2794
    383 H           -9.2043    -0.6582    -3.4391 H       0      r0     0.3094
    384 C           12.2365    17.0215    -8.8925 C       0      r0     0.1929
    385 C           13.6511    17.2983    -8.7883 C       0      r0     0.0102
    386 C           14.4098    17.9249    -9.7758 C       0      r0    -0.0085
    387 C           13.8771    18.1020   -11.0820 C       0      r0     0.1646
    388 C           14.5917   -18.8072   -11.8423 C       0      r0     0.0082
    389 O           12.9100    17.5937   -11.6854 O       0      r0    -0.4922
    390 O           11.6221    16.1366    -8.4388 O       0      r0    -0.4948
    391 C           13.9280   -17.4161   -11.7549 C       5      r5     0.1438
    392 C           12.6068   -17.4163   -12.1757 C       5      r5    -0.0056
    393 C           12.2026   -16.0954   -12.0622 C       5      r5    -0.0134
    394 C           13.2836   -15.3319   -11.4665 C       5      r5     0.1061
    395 O           14.5127   -16.2867   -11.2911 O       5      r5    -0.4521
    396 C           13.1919   -14.0606   -11.1303 C       0      r0    -0.0370
    397 C           11.4784    18.3696    -9.2552 C       0      r0     0.0111
    398 C           11.1460   -17.4565    -5.2686 C       0      r0     0.0231
    399 C           10.8473   -18.7554    -5.6066 C       0      r0    -0.0253
    400 C           10.9998    18.5741    -6.9206 C       0      r0    -0.0059
    401 C           11.3902   -18.7435    -8.0400 C       0      r0     0.1533
    402 O           11.7073   -17.4806    -8.2331 O       0      r0    -0.4628
    403 H           14.1291    16.7918    -7.9528 H       0      r0     0.1130
    404 H           15.4473    18.2953    -9.6130 H       0      r0     0.0893
    405 H           15.6269   -18.9043   -11.6214 H       0      r0     0.0914
    406 H           14.8777    18.8874   -12.9004 H       0      r0     0.0682
    407 H           12.0434   -18.2985   -12.4960 H       0      r0     0.0947
    408 H           11.1833   -15.6834   -12.2356 H       0      r0     0.0777
    409 H           12.2765   -13.5559   -11.2784 H       0      r0     0.0411
    410 H           13.9504   -13.5525   -10.6384 H       0      r0     0.0754
    411 H           12.0651    18.8382   -10.1098 H       0      r0     0.0987
    412 H           10.5287    18.2091    -9.7790 H       0      r0     0.0566
    413 H           10.2875    18.7330    -4.7604 H       0      r0     0.0521
    414 H           10.9546    17.4925    -6.9257 H       0      r0     0.0793
    415 C            0.3651   -18.7325     7.2038 C       0      r0     0.1746
    416 C           -0.6838   -17.9910     6.7578 C       0      r0     0.0022
    417 C           -0.7362   -16.5742     6.4301 C       0      r0    -0.0309
    418 C           -0.1513   -15.5296     6.9909 C       0      r0     0.1360
    419 C           -0.8128   -14.2736     6.4415 C       0      r0    -0.0100
    420 O            0.7963   -15.4564     7.9462 O       0      r0    -0.5041
    421 O            0.2316    17.9864     7.6572 O       0      r0    -0.4726
    422 C           -2.1917   -13.9283     7.1189 C       5      r5     0.1409
    423 C           -2.4236   -14.2213     8.4283 C       5      r5    -0.0003
    424 C           -3.6875   -13.7089     8.6694 C       5      r5    -0.0156
    425 C           -4.2095   -13.1128     7.4787 C       5      r5     0.1030
    426 O           -3.1436   -13.2726     6.4084 O       5      r5    -0.4849
    427 C           -5.4474   -12.5840     7.3798 C       0      r0    -0.0320
    428 C            1.6524   -17.9693     7.2701 C       0      r0     0.0299
    429 C            5.8315    18.0317     7.3225 C       0      r0     0.2526
    430 C            4.8878    18.3259     8.5348 C       0      r0     0.0005
    431 C            3.6304    18.8403     8.4286 C       0      r0    -0.0076
    432 C            2.8793   -18.9463     7.1360 C       0      r0     0.2113
    433 O            3.0893    18.6924     6.0356 O       0      r0    -0.4598
    434 H           -1.5534   -18.6226     6.5351 H       0      r0     0.1105
    435 H           -1.5241   -16.3574     5.7383 H       0      r0     0.0552
    436 H           -0.1452   -13.3844     6.4441 H       0      r0     0.0874
    437 H           -0.9619   -14.6306     5.3773 H       0      r0     0.0538
    438 H           -1.7584   -14.7068     9.1349 H       0      r0     0.0948
    439 H           -4.1590   -13.7025     9.6329 H       0      r0     0.0707
    440 H           -6.0376   -12.5446     8.3098 H       0      r0     0.0643
    441 H           -5.8047   -12.0674     6.4983 H       0      r0     0.0859
    442 H            1.6755   -17.0591     6.7241 H       0      r0     0.0826
    443 H            1.7096   -17.5477     8.3459 H       0      r0     0.1290
    444 H            5.2594    18.1071     9.4968 H       0      r0     0.0695
    445 H            3.0696   -18.8593     9.3544 H       0      r0     0.0824
    446 C           -4.4108    18.1685    -7.4920 C       5      r5     0.1171
    447 O           -3.5967    18.3676    -6.0647 O       5      r5    -0.4878
    448 C           -2.6068   -18.8343    -6.7127 C       5      r5     0.1265
    449 C           -2.7273   -18.5024    -8.0716 C       5      r5    -0.0354
    450 C           -3.8725    18.7346    -8.6056 C       5      r5    -0.0004
    451 C           -5.6385    17.4945    -7.3990 C       0      r0     0.0280
    452 C           -0.3213   -17.7125    -6.4252 C       5      r5     0.1330
    453 O            0.5892   -17.1344    -5.5883 O       5      r5    -0.4701
    454 C            1.5068   -16.5507    -6.7302 C       5      r5     0.1163
    455 C            1.0206   -16.7206    -7.9890 C       5      r5    -0.0143
    456 C           -0.1284   -17.4687    -7.8421 C       5      r5    -0.0428
    457 C           -1.4921   -18.3510    -5.9635 C       0      r0     0.0056
    458 C           -6.4550    17.2514    -8.5087 C       5      r5     0.1495
    459 C           -7.7193    16.6435    -8.2640 C       5      r5    -0.0040
    460 C           -8.4798    16.5034    -9.4633 C       5      r5    -0.0422
    461 C           -7.5502    17.0912   -10.3520 C       5      r5     0.0847
    462 O           -6.1237    17.6439    -9.7968 O       5      r5    -0.4613
    463 C           -8.0521    17.0940   -11.5229 C       0      r0    -0.0526
    464 H           -2.1200   -17.9018    -8.7131 H       0      r0     0.0272
    465 H           -4.2849    18.6443    -9.5678 H       0      r0     0.1064
    466 H           -5.9239    17.1240    -6.4176 H       0      r0     0.0767
    467 H            1.4665   -16.3611    -8.9605 H       0      r0     0.1054
    468 H           -0.6089   -17.7717    -8.7196 H       0      r0     0.0271
    469 H           -1.5919   -18.4859    -4.9186 H       0      r0     0.0778
    470 H           -8.0510    16.3683    -7.2798 H       0      r0     0.1088
    471 H           -9.4556    16.0522    -9.5250 H       0      r0     0.0533
    472 H           -8.9822    16.6733   -11.8036 H       0      r0     0.0676
    473 H           -7.5421    17.5745   -12.3266 H       0      r0     0.0524
    474 C            1.3874   -10.9732   -12.2937 C       5      r5     0.1203
    475 O            2.6758   -10.2900   -12.8947 O       5      r5    -0.4900
    476 C            3.5212   -10.7988   -11.8080 C       5      r5     0.1288
    477 C            2.8971   -11.6757   -10.8952 C       5      r5    -0.0069
    478 C            1.5453   -11.8147   -11.2325 C       5      r5     0.0068
    479 C            0.1252   -10.7657   -12.9085 C       0      r0    -0.0017
    480 C            5.7383   -11.0567   -10.7743 C       0      r0     0.1317
    481 O            7.0746   -11.6461   -11.0004 O       0      r0    -0.4835
    482 C            7.4551   -10.9321    -8.3303 C       0      r0     0.0294
    483 C            6.1252   -10.7885    -8.2723 C       0      r0    -0.0263
    484 C            5.3553   -10.7659    -9.5548 C       0      r0     0.0023
    485 C            4.8880   -10.6595   -11.8662 C       0      r0     0.0212
    486 C           -1.0584   -11.4788   -12.6569 C       5      r5     0.1190
    487 C           -2.1220   -11.2761   -13.4844 C       5      r5     0.0087
    488 C           -3.1370   -12.0828   -12.9757 C       5      r5     0.0110
    489 C           -2.7709   -12.8776   -11.8324 C       5      r5     0.0948
    490 O           -1.2027   -12.5149   -11.5280 O       5      r5    -0.4625
    491 C           -3.4363   -13.6560   -11.1854 C       0      r0    -0.0432
    492 H            3.3452   -12.2154   -10.0945 H       0      r0     0.0658
    493 H            0.8127   -12.4249   -10.7571 H       0      r0     0.0991
    494 H            0.0104   -10.0625   -13.7306 H       0      r0     0.0504
    495 H            5.5222   -10.5903    -7.4427 H       0      r0     0.0522
    496 H            4.3453   -10.4029    -9.6391 H       0      r0     0.0821
    497 H            5.2977   -10.0917   -12.7188 H       0      r0     0.1119
    498 H           -2.1396   -10.5663   -14.3659 H       0      r0     0.1327
    499 H           -4.1892   -12.1955   -13.4116 H       0      r0     0.1353
    500 H           -4.4765   -13.7737   -11.5710 H       0      r0     0.0607
    501 H           -3.0659   -14.2992   -10.3826 H       0      r0     0.0453
    502 C            7.3835    -0.2589   -16.8271 C       5      r5     0.1523
    503 O            6.1983    -1.1602   -17.0476 O       5      r5    -0.4574
    504 C            5.3829    -0.6461   -15.9207 C       5      r5     0.1388
    505 C            6.0765     0.4003   -15.2639 C       5      r5    -0.0240
    506 C            7.3273     0.7533   -15.8061 C       5      r5    -0.0553
    507 C            8.5094    -0.1108   -17.4430 C       0      r0     0.1714
    508 C            4.2311    -1.1416   -15.4432 C       0      r0    -0.0052
    509 H            5.6440     0.9534   -14.4480 H       0      r0     0.0446
    510 H            7.9291     1.5980   -15.6026 H       0      r0     0.0207
    511 H            9.2774     0.6713   -17.1714 H       0      r0     0.1177
    512 H            3.3734    -1.4076   -14.8778 H       0      r0     0.0770
    513 C           -8.1264   -10.8789     3.7684 C       5      r5     0.1074
    514 O           -6.7069   -10.8803     4.3919 O       5      r5    -0.4592
    515 C           -6.8318    -9.6274     5.0280 C       5      r5     0.1388
    516 C           -8.0020    -8.8940     4.9138 C       5      r5    -0.0264
    517 C           -8.8170    -9.6239     4.1150 C       5      r5    -0.0262
    518 C           -8.6475   -11.8163     2.9794 C       0      r0    -0.0199
    519 C           -5.7979    -9.0204     5.8784 C       0      r0    -0.0114
    520 H           -8.2662    -7.9418     5.3658 H       0      r0     0.0506
    521 H           -9.7707    -9.3276     3.7583 H       0      r0     0.0541
    522 H           -9.3504   -12.2819     2.2935 H       0      r0     0.1144
    523 H           -5.9179    -8.0320     6.3159 H       0      r0     0.0464
    524 C            1.7062    15.9873    14.7523 C       5      r5     0.1227
    525 O            0.3018    16.3675    15.0668 O       5      r5    -0.4735
    526 C            0.7244    17.6756    15.7394 C       5      r5     0.0960
    527 C            2.1943    17.8410    15.7447 C       5      r5    -0.0438
    528 C            2.7904    16.7838    15.0813 C       5      r5    -0.0406
    529 C            1.9869    14.7830    14.0643 C       0      r0    -0.0064
    530 C           -0.0680    18.4898    16.3762 C       0      r0    -0.0200
    531 H            2.6912    18.5918    16.2956 H       0      r0     0.0343
    532 H            3.8102    16.6483    14.8359 H       0      r0     0.0448
    533 H            3.0063    14.4744    13.8322 H       0      r0     0.0441
    534 H           -0.6008   -18.6744    16.9498 H       0      r0     0.0976
    535 C           15.0828    10.7139    12.3762 C       5      r5     0.1326
    536 O           14.0316     9.9080    13.0902 O       5      r5    -0.4553
    537 C           13.6864    11.2039    14.0246 C       5      r5     0.0979
    538 C           14.5707    12.3299    13.7702 C       5      r5    -0.0321
    539 C           15.4026    12.0341    12.7305 C       5      r5    -0.0330
    540 C           15.8683    10.2472    11.2890 C       0      r0    -0.0198
    541 C           12.6607    11.3206    14.8488 C       0      r0    -0.0304
    542 H           14.4677    13.2055    14.2920 H       0      r0     0.0560
    543 H           16.0830    12.7149    12.2520 H       0      r0     0.0368
    544 H           16.7666    10.6905    10.9250 H       0      r0     0.0382
    545 H           11.8909    11.4975    15.5617 H       0      r0     0.0587
    546 C           -4.4948    -8.5326   -15.5578 C       6      r6     0.0715
    547 C           -5.8860    -8.7677   -15.8634 C       6      r6    -0.0229
    548 C           -5.8473   -10.0015   -16.2912 C       6      r6    -0.0080
    549 C           -4.4043   -10.6199   -16.3322 C       6      r6     0.1244
    550 C           -2.3470   -10.2933   -17.6440 C       5      r5     0.1644
    551 O           -1.4666    -9.4603   -17.0784 O       5      r5    -0.4732
    552 C           -2.1980    -8.0590   -16.8610 C       5      r5     0.1126
    553 C           -3.7311    -8.3333   -17.0085 C       6      r6     0.0008
    554 C           -3.7420    -9.8740   -17.4752 C       6      r6     0.0319
    555 C           -1.6249    -7.0316   -16.5494 C       0      r0     0.0031
    556 C           -4.3145    -7.4162   -14.5686 C       0      r0    -0.0115
    557 C           -4.4284   -12.1509   -16.5369 C       0      r0    -0.0155
    558 C           -1.9971   -11.4120   -18.3872 C       0      r0    -0.0042
    559 O           -3.7250   -10.0134   -15.2053 O       5      r5    -0.4705
    560 C           -3.6115    -4.0876    17.6608 C       0      r0    -0.0469
    561 C           -3.5671    -4.4552   -18.4248 C       0      r0    -0.0413
    562 C           -2.8354    -5.6386   -18.0592 C       0      r0    -0.0230
    563 C           -2.5192    -5.9309   -16.7792 C       0      r0     0.1107
    564 O           -2.8841    -5.0936   -15.5986 O       0      r0    -0.4936
    565 O           -4.1321   -12.1519    18.0575 O       5      r5    -0.4834
    566 C           -2.8172   -12.3167    18.2759 C       5      r5     0.1256
    567 C           -2.1621   -13.4716    17.8174 C       5      r5    -0.0117
    568 C           -3.0420   -14.4377    17.3655 C       5      r5    -0.0248
    569 C           -4.2894   -13.7053    17.5254 C       5      r5     0.0734
    570 O           -4.5334    -6.9250   -12.1365 O       5      r5    -0.4811
    571 C           -4.9008    -7.9805   -10.9522 C       5      r5     0.0797
    572 C           -5.1646    -9.2856   -11.5318 C       5      r5    -0.0471
    573 C           -4.8827    -9.1874   -12.9156 C       5      r5    -0.0062
    574 C           -4.5475    -7.8873   -13.1313 C       5      r5     0.1358
    575 C           -5.5764   -12.7629   -15.7287 C       5      r5     0.1341
    576 C           -6.7020   -13.0328   -16.5152 C       5      r5    -0.0431
    577 C           -7.6130   -13.5842   -15.6881 C       5      r5    -0.0453
    578 C           -7.0082   -13.6730   -14.3443 C       5      r5     0.0720
    579 O           -5.4699   -13.0848   -14.4210 O       5      r5    -0.4802
    580 C           -4.8982    -7.7030    -9.7085 C       0      r0    -0.0486
    581 C           -5.2305   -14.4313    17.1031 C       0      r0    -0.0484
    582 H           -6.7277    -8.0960   -15.8101 H       0      r0     0.0874
    583 H           -6.7299   -10.5284   -16.6294 H       0      r0     0.0666
    584 H           -4.2037    -7.6107   -17.6394 H       0      r0     0.0388
    585 H           -4.2802    -9.9878   -18.4153 H       0      r0     0.0773
    586 H           -0.5858    -6.8993   -16.3386 H       0      r0     0.0627
    587 H           -3.3676    -6.8507   -14.7210 H       0      r0     0.1046
    588 H           -4.8790    -6.4812   -14.9188 H       0      r0     0.0613
    589 H           -4.5943   -12.3959   -17.6554 H       0      r0     0.1018
    590 H           -3.4263   -12.4552   -16.3571 H       0      r0     0.0679
    591 H           -0.9451   -11.7140   -18.3450 H       0      r0     0.0462
    592 H           -3.9081    -3.8100   -17.5769 H       0      r0     0.0743
    593 H           -2.5943    -6.2814    18.5662 H       0      r0     0.0525
    594 H           -1.1215   -13.6235    17.8678 H       0      r0     0.0802
    595 H           -2.8616   -15.4889    17.0161 H       0      r0     0.1251
    596 H           -5.4555   -10.1550   -10.9534 H       0      r0     0.0329
    597 H           -5.0615    -9.9554   -13.6355 H       0      r0     0.1049
    598 H           -6.8681   -13.0067   -17.5694 H       0      r0     0.0354
    599 H           -8.6079   -13.9772   -15.9046 H       0      r0     0.0550
    600 H           -5.0798    -8.4247    -8.9160 H       0      r0     0.0253
    601 H           -4.6681    -6.6838    -9.3307 H       0      r0     0.0926
    602 H           -5.2031   -15.4601    16.7870 H       0      r0     0.0549
    603 H           -6.2422   -14.0480    17.2003 H       0      r0     0.0855
    604 C           -9.6712   -16.3172   -10.3539 C       6      r6     0.1707
    605 C           -9.0784   -17.7180    -9.9675 C       6      r6    -0.0100
    606 C           -8.7562   -18.0817    -8.7518 C       6      r6    -0.0259
    607 C           -9.2977   -17.0209    -7.9451 C       6      r6    -0.0133
    608 C           -9.0099   -14.6344    -7.1179 C       5      r5     0.1612
    609 O           -9.7967   -13.6780    -7.7969 O       5      r5    -0.4748
    610 C           -9.4433   -13.8414    -9.1332 C       5      r5     0.1615
    611 C           -8.7435   -15.1607    -9.4425 C       6      r6     0.0197
    612 C           -8.5440   -15.7336    -8.0067 C       6      r6     0.0169
    613 C           -9.7187   -12.8377    -9.9779 C       0      r0     0.0286
    614 C           -9.4506   -16.1172   -12.0564 C       0      r0    -0.0133
    615 C          -10.0359   -17.4253    -6.6865 C       0      r0    -0.0117
    616 C           -8.8340   -14.6939    -5.7800 C       0      r0     0.0170
    617 O          -10.8412   -16.1145   -10.1980 O       0      r0    -0.4811
    618 C           -9.0385   -12.0541   -13.4861 C       5      r5     0.1117
    619 C           -8.0769   -13.0988   -13.3131 C       5      r5    -0.0029
    620 C           -8.3488   -13.5056   -11.9614 C       5      r5    -0.0150
    621 C           -9.4143   -12.7851   -11.4023 C       5      r5     0.1341
    622 O           -9.9730   -11.8449   -12.2284 O       5      r5    -0.4612
    623 O           -7.5919   -16.8879    -5.4309 O       5      r5    -0.4656
    624 C           -8.1241   -15.6611    -4.9984 C       5      r5     0.1357
    625 C           -7.8795   -15.3184    -3.6465 C       5      r5    -0.0295
    626 C           -7.0335   -16.2332    -3.0018 C       5      r5    -0.0389
    627 C           -6.8672   -17.1586    -4.1012 C       5      r5     0.1066
    628 O           -6.9986   -16.0992   -11.4514 O       5      r5    -0.4828
    629 C           -5.8110   -16.7512   -12.4263 C       5      r5     0.0936
    630 C           -6.4459   -17.5547   -13.4608 C       5      r5    -0.0280
    631 C           -7.8052   -17.3169   -13.4194 C       5      r5    -0.0411
    632 C           -8.0050   -16.5318   -12.3072 C       5      r5     0.1119
    633 C          -11.1541   -18.3717    -7.0449 C       0      r0     0.1494
    634 C          -11.8185   -18.0501    -8.1144 C       0      r0    -0.0111
    635 C          -13.0403   -18.7947    -8.4810 C       0      r0    -0.0277
    636 C          -13.5279    18.0042    -7.8960 C       0      r0     0.0340
    637 O          -11.3242    18.6279    -6.1020 O       0      r0    -0.4873
    638 C           -4.5737   -16.6582   -12.2013 C       0      r0    -0.0364
    639 C           -6.1195   -18.0856    -3.7005 C       0      r0    -0.0433
    640 H           -8.7297   -18.2561   -10.8360 H       0      r0     0.0635
    641 H           -8.2296    18.8881    -8.4442 H       0      r0     0.0877
    642 H           -7.9811   -15.3128   -10.1907 H       0      r0     0.1155
    643 H           -7.4652   -16.0044    -7.8439 H       0      r0     0.1055
    644 H          -10.2129   -11.9636    -9.5969 H       0      r0     0.0903
    645 H          -10.1387   -16.6887   -12.6216 H       0      r0     0.0571
    646 H           -9.6739   -15.1715   -12.4938 H       0      r0     0.0592
    647 H           -9.3729   -17.8811    -5.9350 H       0      r0     0.1275
    648 H          -10.3458   -16.4599    -6.2257 H       0      r0     0.0484
    649 H           -9.1799   -13.7348    -5.3349 H       0      r0     0.0704
    650 H           -7.1009   -14.6380   -13.8610 H       0      r0     0.0834
    651 H           -7.7532   -14.2083   -11.4652 H       0      r0     0.0878
    652 H           -8.2915   -14.4426    -3.1724 H       0      r0     0.0339
    653 H           -6.6076   -16.2093    -2.0169 H       0      r0     0.0576
    654 H           -5.9304   -18.1330   -14.1980 H       0      r0     0.0916
    655 H           -8.5548   -17.7239   -14.1608 H       0      r0     0.0447
    656 H          -11.5601   -17.1229    -8.6645 H       0      r0     0.1085
    657 H          -13.4597   -18.3794    -9.3787 H       0      r0     0.0611
    658 H           -3.9359   -17.3690   -12.7561 H       0      r0     0.0460
    659 H           -4.1235   -16.1527   -11.3292 H       0      r0     0.0528
    660 H           -5.6714   -18.1883    -2.7575 H       0      r0     0.0410
    661 H           -5.7220   -18.9137    -4.3279 H       0      r0     0.0748
    662 C            3.0152    -6.3057   -15.6563 C       6      r6     0.1220
    663 C            1.9089    -7.0912   -15.0335 C       6      r6    -0.0254
    664 C            1.4890    -8.2811   -15.5690 C       6      r6    -0.0228
    665 C            2.0675    -8.8476   -16.7742 C       6      r6     0.0023
    666 C            4.1477    -8.3541   -18.2671 C       5      r5     0.1026
    667 O            4.7183    -6.7236   -18.4203 O       5      r5    -0.4692
    668 C            3.8119    -5.8916   -18.0513 C       5      r5     0.1810
    669 C            2.7426    -6.5776   -17.2336 C       6      r6     0.0288
    670 C            2.9834    -8.0319   -17.3786 C       6      r6     0.0305
    671 C            3.6993    -4.5899   -18.4861 C       0      r0     0.0229
    672 C            2.8158    -4.7912   -15.2319 C       0      r0     0.0179
    673 C            1.6580   -10.2776   -17.2571 C       0      r0    -0.0174
    674 C            5.1503    -9.2071   -17.5567 C       0      r0     0.0172
    675 O            4.3858    -6.5402   -15.3106 O       0      r0    -0.5744
    676 C            0.6200    -2.8800   -17.8114 C       5      r5     0.1065
    677 C            1.4962    -1.8951   -18.5418 C       5      r5    -0.0070
    678 C            2.7233    -2.4358   -18.6841 C       5      r5    -0.0147
    679 C            2.5678    -3.7378   -18.1668 C       5      r5     0.1251
    680 O            1.4175    -4.1884   -17.4906 O       5      r5    -0.5004
    681 O            4.9527   -11.0785    18.2067 O       0      r0    -0.4758
    682 C            5.4230   -10.4804   -17.9928 C       0      r0     0.1490
    683 C            6.2044   -11.0531   -17.0094 C       0      r0    -0.0147
    684 C            6.4797   -12.4915   -17.0994 C       0      r0    -0.0309
    685 C            6.2967   -13.3400   -18.2208 C       0      r0     0.0076
    686 O            2.4163    -3.5350   -13.4331 O       0      r0    -0.4862
    687 C            3.5180    -4.0618   -10.8196 C       0      r0     0.1532
    688 C            3.8876    -5.2005   -11.4351 C       0      r0    -0.0190
    689 C            3.7219    -5.4471   -12.8784 C       0      r0     0.0146
    690 C            2.9418    -4.5758   -13.7254 C       0      r0     0.1698
    691 C            1.9023   -11.3257   -16.1997 C       3      r3     0.0693
    692 C            0.8911   -12.1286   -15.6278 C       3      r3    -0.0128
    693 C            2.4578   -13.6197   -15.7358 C       0      r0     0.0093
    694 C            3.5958   -12.8635   -15.0690 C       0      r0     0.0819
    695 O            3.4675   -11.2297   -15.2829 O       0      r0    -0.5365
    696 C            4.4383   -13.3322   -14.3395 C       0      r0    -0.0429
    697 C           -0.5383    -2.6323   -17.5222 C       0      r0    -0.0270
    698 H            1.4972    -6.6597   -14.1980 H       0      r0     0.0452
    699 H            0.6266    -8.8195   -15.1296 H       0      r0     0.0689
    700 H            1.7230    -6.2343   -17.4309 H       0      r0     0.0967
    701 H            3.9615    -8.9678    18.2431 H       0      r0     0.1361
    702 H            4.5116    -4.1357    18.3518 H       0      r0     0.1319
    703 H            3.5246    -4.2488   -15.7920 H       0      r0     0.0783
    704 H            1.8511    -4.3636   -15.6722 H       0      r0     0.1219
    705 H            0.6158   -10.2467   -17.4923 H       0      r0     0.0902
    706 H            2.0133   -10.5351   -18.2870 H       0      r0     0.0821
    707 H            5.3984    -8.8392   -16.5628 H       0      r0     0.0841
    708 H            1.1989    -0.9134    18.5024 H       0      r0     0.1173
    709 H            3.4757    -1.9859    18.1338 H       0      r0     0.0695
    710 H            6.4846   -10.4143   -16.1997 H       0      r0     0.0387
    711 H            6.9771   -13.0088   -16.2996 H       0      r0     0.0484
    712 H            4.2868    -5.9350   -10.7595 H       0      r0     0.0587
    713 H            3.9675    -6.3891   -13.2498 H       0      r0     0.1518
    714 H            0.6317   -12.3450   -14.5994 H       0      r0     0.1006
    715 H           -2.9615    18.7947   -16.8137 H       0      r0     0.1618
    716 H            4.4518   -14.4168   -14.1399 H       0      r0     0.0600
    717 H            5.2292   -12.7154   -13.8417 H       0      r0     0.0543
    718 H           -0.9942    -1.7454   -17.9131 H       0      r0     0.0566
    719 H           -1.1729    -3.3977   -16.9429 H       0      r0     0.0865
    720 C           -1.4669   -16.9493   -15.7640 C       6      r6     0.0908
    721 C           -2.4922   -15.8951   -15.4059 C       6      r6    -0.0164
    722 C           -3.7395   -15.7267   -15.8935 C       6      r6    -0.0409
    723 C           -3.8793   -16.5979   -16.9435 C       6      r6    -0.0212
    724 C           -2.8251   -18.6963   -17.7466 C       5      r5     0.1158
    725 O           -1.2256    18.8868   -18.1190 O       5      r5    -0.4546
    726 C           -0.4948   -17.9906   -17.8477 C       5      r5     0.1774
    727 C           -1.3444   -16.8970   -17.2373 C       6      r6     0.0142
    728 C           -2.7796   -17.1752   -17.7621 C       6      r6    -0.0061
    729 C            0.8321   -17.7878   -17.9437 C       0      r0     0.0014
    730 C           -0.1265   -16.5099   -15.1258 C       0      r0    -0.0073
    731 C           -5.3020   -16.6587   -17.5530 C       0      r0    -0.0491
    732 C           -3.8492    18.8441    18.6052 C       0      r0     0.0050
    733 O           -1.6249   -18.5167   -15.1008 O       0      r0    -0.4479
    734 C            2.3756   -14.7813   -16.6227 C       5      r5     0.0891
    735 C            3.4543   -15.6350   -16.6488 C       5      r5    -0.0341
    736 C            2.9478   -16.7635   -17.3427 C       5      r5    -0.0285
    737 C            1.5788   -16.5689   -17.6378 C       5      r5     0.1096
    738 O            1.0534   -15.3052   -17.4391 O       5      r5    -0.4896
    739 O           -3.2079   -17.2870    16.7479 O       5      r5    -0.4937
    740 C           -3.9777   -18.4600    17.4330 C       5      r5     0.1060
    741 C           -5.1358    18.9417    16.8078 C       5      r5    -0.0303
    742 C           -5.2046   -18.2246    15.6265 C       5      r5    -0.0242
    743 C           -4.1414   -17.2255    15.6127 C       5      r5     0.1111
    744 O           -0.2849   -14.4080   -13.8583 O       5      r5    -0.4716
    745 C           -0.3527   -14.2253   -12.1491 C       5      r5     0.1692
    746 C           -0.4243   -15.6195   -11.6005 C       5      r5    -0.0425
    747 C           -0.3700   -16.4960   -12.6592 C       5      r5    -0.0267
    748 C           -0.3322   -15.7138   -13.7869 C       5      r5     0.1361
    749 C           -6.1699   -17.7995   -16.9569 C       5      r5     0.1302
    750 C           -7.5240   -17.6613   -17.2419 C       5      r5    -0.0305
    751 C           -8.1116   -18.8252   -16.7242 C       5      r5    -0.0181
    752 C           -7.0406    18.3666   -16.0819 C       5      r5     0.0878
    753 O           -5.5990   -18.8522   -16.3108 O       5      r5    -0.4697
    754 C           -7.1610    17.3269   -15.4317 C       0      r0    -0.0405
    755 C            1.6966   -12.7470   -16.6037 C       3      r3     0.0175
    756 H           -2.2738   -15.2102   -14.5924 H       0      r0     0.0988
    757 H           -4.4791   -15.1157   -15.3996 H       0      r0     0.0804
    758 H           -0.9334   -15.9454   -17.4743 H       0      r0     0.0874
    759 H           -2.7293   -16.9414    18.5135 H       0      r0     0.1207
    760 H            1.4586   -18.6229   -18.1739 H       0      r0     0.0735
    761 H            0.3340   -17.5377   -14.9973 H       0      r0     0.0822
    762 H            0.5691   -15.9080   -15.8174 H       0      r0     0.1198
    763 H           -5.8819   -15.7704   -17.5576 H       0      r0     0.0265
    764 H           -5.2911   -16.8065   -18.6742 H       0      r0     0.0464
    765 H           -4.6222    18.1957   -18.4232 H       0      r0     0.0848
    766 H            4.4453   -15.5369   -16.2303 H       0      r0     0.0655
    767 H            3.4386   -17.7021   -17.4652 H       0      r0     0.0814
    768 H           -5.7967    18.1473    17.1757 H       0      r0     0.0658
    769 H           -5.8720   -18.3902    14.7755 H       0      r0     0.0731
    770 H           -0.4081   -15.8166   -10.5503 H       0      r0     0.0300
    771 H           -0.2675   -17.5733   -12.6665 H       0      r0     0.1161
    772 H           -8.0264   -16.7782   -17.7452 H       0      r0     0.0364
    773 H           -9.1596    18.8735   -16.8408 H       0      r0     0.0606
    774 H           -8.0196    16.7948   -15.2419 H       0      r0     0.0576
    775 H           -6.2873    16.8456   -15.0640 H       0      r0     0.0562
    776 H            5.0368    -6.5485   -16.0257 H       0      r0     0.3588
    777 H            3.0375   -10.9643   -14.3536 H       0      r0     0.3480
    778 C           -0.7242     5.0172    -4.7422 C       0      r0     0.1762
    779 C           -1.9188     5.2960    -3.9608 C       0      r0     0.0171
    780 C           -3.0516     4.5424    -3.8789 C       0      r0     0.0187
    781 C           -3.3363     3.2251    -4.2194 C       0      r0     0.1674
    782 C           -4.5805     2.6447    -3.7025 C       0      r0     0.0096
    783 O           -2.5169     2.4387    -4.9098 O       0      r0    -0.5103
    784 O            0.2904     5.5535    -4.4717 O       0      r0    -0.4897
    785 C           -5.8491     3.5154    -3.5615 C       5      r5     0.1421
    786 C           -6.9899     2.8641    -4.0155 C       5      r5    -0.0142
    787 C           -8.0390     3.6545    -3.6240 C       5      r5    -0.0125
    788 C           -7.4744     4.8485    -2.9718 C       5      r5     0.1121
    789 O           -5.9485     4.7305    -2.9687 O       5      r5    -0.4647
    790 C           -8.2251     5.7845    -2.5646 C       0      r0    -0.0286
    791 C           -0.8415     4.1637    -6.0740 C       0      r0     0.0187
    792 C           -0.6188     5.7983    -9.4408 C       5      r5     0.0998
    793 C            0.0445     6.7521    -8.6647 C       5      r5    -0.0407
    794 C           -0.1705     6.2527    -7.3351 C       5      r5    -0.0167
    795 C           -0.7717     5.0109    -7.3520 C       5      r5     0.1505
    796 O           -1.1591     4.4161    -8.4855 O       5      r5    -0.4748
    797 H           -1.8999     6.2747    -3.5179 H       0      r0     0.0838
    798 H           -3.7481     5.2596    -3.3536 H       0      r0     0.1111
    799 H           -4.8165     1.7792    -4.3791 H       0      r0     0.0915
    800 H           -4.3422     2.0881    -2.8068 H       0      r0     0.1009
    801 H           -6.9973     1.9290    -4.5170 H       0      r0     0.0649
    802 H           -9.1137     3.5161    -3.7775 H       0      r0     0.1180
    803 H           -9.2818     5.8133    -2.7657 H       0      r0     0.0606
    804 H           -7.8730     6.6107    -2.0428 H       0      r0     0.0821
    805 H           -0.2163     3.2863    -6.0428 H       0      r0     0.0935
    806 H           -1.8329     3.7369    -6.1621 H       0      r0     0.1215
    807 H            0.5506     7.6309    -9.0583 H       0      r0     0.0395
    808 H            0.2220     6.6233    -6.4399 H       0      r0     0.0864
    809 C           -6.0431    16.7553     9.1090 C       0      r0     0.1562
    810 C           -6.7348    17.8904     9.6784 C       0      r0    -0.0422
    811 C           -7.9238    18.4778     9.2788 C       0      r0    -0.0125
    812 C           -8.9379    18.0576     8.4046 C       0      r0     0.1666
    813 C           -9.0150    16.6340     8.0256 C       0      r0     0.0238
    814 O           -9.8110    18.8397     7.9433 O       0      r0    -0.4791
    815 O           -6.3209    15.9696     8.2770 O       0      r0    -0.4918
    816 C           -9.0954    16.4487     6.5102 C       5      r5     0.1770
    817 C           -8.7950    17.5302     5.6860 C       5      r5     0.0274
    818 C           -8.9233    17.0203     4.4026 C       5      r5    -0.0199
    819 C           -9.2696    15.6138     4.4775 C       5      r5     0.0926
    820 O           -9.4929    15.2452     6.0208 O       5      r5    -0.4836
    821 C           -9.4285    14.8964     3.4166 C       0      r0    -0.0467
    822 C           -4.7385    16.4093     9.9345 C       0      r0     0.0159
    823 C           -7.9608    13.5912    12.3029 C       0      r0     0.1534
    824 C           -6.5764    13.9477    12.0594 C       0      r0    -0.0165
    825 C           -6.1954    14.8916    11.0044 C       0      r0    -0.0116
    826 C           -4.9393    15.2570    10.8012 C       0      r0     0.1406
    827 O           -3.7728    14.7520    11.3494 O       0      r0    -0.5000
    828 H           -6.1570    18.3783    10.4743 H       0      r0     0.0357
    829 H           -8.2997   -18.5767     9.7362 H       0      r0     0.0568
    830 H           -8.1867    15.9354     8.3975 H       0      r0     0.1267
    831 H           -9.9328    16.2178     8.5096 H       0      r0     0.0700
    832 H           -8.5497    18.5099     6.0414 H       0      r0     0.1406
    833 H           -8.8285    17.6017     3.5047 H       0      r0     0.0483
    834 H           -9.2693    15.2779     2.4402 H       0      r0     0.0510
    835 H           -9.6625    13.8835     3.4622 H       0      r0     0.0534
    836 H           -3.9207    16.2686     9.1570 H       0      r0     0.1066
    837 H           -4.2664    17.2791    10.4573 H       0      r0     0.1224
    838 H           -5.7903    13.6124    12.7367 H       0      r0     0.1207
    839 H           -7.0395    15.2109    10.4099 H       0      r0     0.0940
    840 C           -7.9953    11.0085    -6.8650 C       5      r5     0.1014
    841 O           -7.9585    12.5632    -6.2875 O       5      r5    -0.4751
    842 C           -8.7002    12.2401    -5.2067 C       5      r5     0.1508
    843 C           -9.1429    10.8755    -5.0561 C       5      r5     0.0123
    844 C           -8.6441    10.0786    -6.0677 C       5      r5     0.0016
    845 C           -7.3634    10.7123    -8.0462 C       0      r0     0.0094
    846 C           -9.8255    12.9977    -3.0564 C       0      r0     0.1307
    847 O          -10.5709    11.7408    -2.6867 O       0      r0    -0.4610
    848 C          -10.5430    13.2888    -0.0438 C       0      r0     0.1386
    849 C          -10.5319    14.2497    -1.0370 C       0      r0    -0.0283
    850 C           -9.8236    14.1370    -2.3813 C       0      r0    -0.0151
    851 C           -9.0030    13.2069    -4.1972 C       0      r0     0.0140
    852 C           -7.3678     9.4074    -8.6338 C       5      r5     0.1420
    853 C           -6.9545     9.3232   -10.0142 C       5      r5    -0.0368
    854 C           -7.0085     8.0418   -10.5072 C       5      r5    -0.0388
    855 C           -7.4500     7.3585    -9.2917 C       5      r5     0.0989
    856 O           -7.7960     8.2930    -8.0177 O       5      r5    -0.4675
    857 C           -7.5458     6.1515    -9.5204 C       0      r0    -0.0222
    858 H           -9.8077    10.5168    -4.2289 H       0      r0     0.1254
    859 H           -8.7432     9.0296    -6.3157 H       0      r0     0.1172
    860 H           -6.8939    11.5292    -8.5900 H       0      r0     0.0956
    861 H          -10.9756    15.0902    -0.5170 H       0      r0     0.0543
    862 H           -9.3153    15.0097    -2.7579 H       0      r0     0.0546
    863 H           -8.6633    14.2321    -4.3863 H       0      r0     0.0804
    864 H           -6.7534    10.2209   -10.5480 H       0      r0     0.0347
    865 H           -6.7352     7.7158   -11.5273 H       0      r0     0.0840
    866 H           -7.3589     5.7124   -10.5058 H       0      r0     0.0815
    867 H           -7.9196     5.4133    -8.7946 H       0      r0     0.1158
    868 C          -17.2535    11.2364    -5.0746 C       5      r5     0.1595
    869 O          -17.7018    12.1724    -5.9772 O       5      r5    -0.4583
    870 C          -16.3313    12.9175    -6.0672 C       5      r5     0.1207
    871 C          -15.2888    12.3801    -5.3648 C       5      r5    -0.0291
    872 C          -15.8785    11.2950    -4.7148 C       5      r5    -0.0041
    873 C          -18.0466    10.1902    -4.5708 C       0      r0     0.0121
    874 C          -15.2817    15.0461    -6.9469 C       5      r5     0.1436
    875 O          -15.2416    15.9967    -7.9228 O       5      r5    -0.4627
    876 C          -14.0700    16.8552    -7.2980 C       5      r5     0.1270
    877 C          -13.5783    16.3394    -6.1212 C       5      r5    -0.0042
    878 C          -14.2631    15.1694    -5.9057 C       5      r5    -0.0128
    879 C          -16.2561    14.0054    -6.9051 C       0      r0     0.0291
    880 C          -17.5980     9.2982    -3.5401 C       5      r5     0.1146
    881 C           18.6336     8.4770    -3.0769 C       5      r5    -0.0347
    882 C          -17.9628     7.6999    -2.1174 C       5      r5    -0.0265
    883 C          -16.5669     8.1273    -2.0592 C       5      r5     0.1175
    884 O          -16.2459     9.2109    -3.0424 O       5      r5    -0.4990
    885 C          -16.0003     7.4920    -1.1754 C       0      r0    -0.0332
    886 H          -14.2554    12.7104    -5.2937 H       0      r0     0.0414
    887 H          -15.3774    10.6002    -4.0676 H       0      r0     0.1014
    888 H           18.2145    10.0648    -4.7742 H       0      r0     0.0641
    889 H          -12.7900    16.7247    -5.5580 H       0      r0     0.0989
    890 H          -14.1703    14.4804    -5.1203 H       0      r0     0.0580
    891 H          -17.0006    14.1693    -7.6694 H       0      r0     0.0994
    892 H           17.5678     8.4633    -3.3523 H       0      r0     0.0614
    893 H          -18.5005     6.9124    -1.5801 H       0      r0     0.0515
    894 H          -16.4974     6.7224    -0.5734 H       0      r0     0.0576
    895 H          -14.9028     7.6270    -1.0235 H       0      r0     0.0657
    896 C           -5.0964    -0.9502    14.6088 C       5      r5     0.1066
    897 O           -4.3600    -2.3813    14.2326 O       5      r5    -0.4621
    898 C           -4.2748    -2.6626    15.7477 C       5      r5     0.1320
    899 C           -4.5635    -1.7426    16.6861 C       5      r5    -0.0289
    900 C           -5.0893    -0.6516    16.0121 C       5      r5    -0.0238
    901 C           -5.5299    -0.0897    13.7012 C       0      r0    -0.0057
    902 C           -3.6135    -3.8325    16.2964 C       0      r0    -0.0072
    903 H           -4.4566    -1.7175    17.8015 H       0      r0     0.0367
    904 H           -5.4810     0.2596    16.4006 H       0      r0     0.0651
    905 H           -5.7408     0.4453    12.8037 H       0      r0     0.0847
    906 H           -3.0652    -4.6308    15.7076 H       0      r0     0.0788
    907 C          -16.7420     9.7027    11.0000 C       5      r5     0.1161
    908 O          -15.8429    10.9370    10.5663 O       5      r5    -0.4555
    909 C          -16.7105    11.9297    11.1227 C       5      r5     0.1346
    910 C          -17.8904    11.5678    11.7818 C       5      r5    -0.0293
    911 C          -17.9250    10.2059    11.7028 C       5      r5    -0.0174
    912 C          -16.5033     8.4455    10.7917 C       0      r0    -0.0039
    913 C          -16.4536    13.3666    11.1569 C       0      r0    -0.0321
    914 H          -18.5690    12.2645    12.2454 H       0      r0     0.0342
    915 H           18.5230     9.5786    11.9411 H       0      r0     0.0526
    916 H          -16.2400     7.4124    10.5840 H       0      r0     0.0708
    917 H          -17.2760    13.9936    11.4226 H       0      r0     0.0376
    918 C          -12.9304     3.1553     5.8497 C       5      r5     0.1670
    919 O          -14.2992     2.4952     6.4260 O       5      r5    -0.4368
    920 C          -15.1570     3.3397     5.2478 C       5      r5     0.1228
    921 C          -14.5411     4.2687     4.3704 C       5      r5    -0.0304
    922 C          -13.2146     4.1379     4.7877 C       5      r5    -0.0003
    923 C          -11.7354     3.0573     5.9669 C       0      r0     0.1605
    924 C          -16.4200     3.3128     5.0532 C       0      r0     0.1581
    925 H          -14.9661     4.8777     3.5610 H       0      r0     0.0543
    926 H          -12.3792     4.5849     4.2311 H       0      r0     0.0985
    927 H          -11.0142     3.6349     5.4349 H       0      r0     0.1331
    928 H          -16.7653     3.9253     4.2299 H       0      r0     0.0879
    929 C           16.7105    12.9374   -10.5051 C       6      r6     0.0729
    930 C           15.9622    11.7860    -9.9415 C       6      r6    -0.0077
    931 C           16.9526    10.8908    -9.9338 C       6      r6    -0.0165
    932 C           18.2746    11.4925   -10.4879 C       6      r6     0.1288
    933 C          -18.1753    12.1631   -12.8992 C       5      r5     0.1507
    934 O          -18.5276    13.4262   -13.3246 O       5      r5    -0.4960
    935 C           17.4023    13.5651   -12.9392 C       5      r5     0.1240
    936 C           16.8244    12.5000   -12.0439 C       6      r6    -0.0175
    937 C           18.0355    11.5321   -11.9790 C       6      r6     0.0161
    938 C           16.6858    14.6052   -13.3900 C       0      r0     0.0089
    939 C           16.0960    14.3598   -10.1608 C       0      r0    -0.0176
    940 C          -17.7297    10.5896    -9.9812 C       0      r0     0.0053
    941 C          -17.0970    11.5679   -13.3091 C       0      r0     0.0122
    942 O           18.3144    12.8212   -10.0723 O       5      r5    -0.4779
    943 C           13.4914    16.0960   -12.4533 C       5      r5     0.2315
    944 C           13.4066    14.5939   -12.0463 C       5      r5    -0.0028
    945 C           14.4568    13.9343   -12.5373 C       5      r5    -0.0284
    946 C           15.3042    14.9479   -13.1196 C       5      r5     0.1424
    947 O           14.8255    16.1985   -13.3989 O       5      r5    -0.4792
    948 O          -17.4185     9.2976   -12.3892 O       5      r5    -0.4971
    949 C          -16.6409    10.2354   -13.0127 C       5      r5     0.1261
    950 C          -15.3188     9.9341   -13.3671 C       5      r5    -0.0251
    951 C          -14.9222     8.6662   -12.8148 C       5      r5    -0.0271
    952 C          -16.1540     8.2595   -12.2988 C       5      r5     0.0958
    953 O           16.3477    16.2333    -8.3709 O       5      r5    -0.4790
    954 C           16.9086    16.0806    -6.9880 C       5      r5     0.1105
    955 C           17.4233    14.7582    -6.7614 C       5      r5    -0.0112
    956 C           17.2722    14.0926    -7.9792 C       5      r5     0.0410
    957 C           16.5922    14.9262    -8.7916 C       5      r5     0.1570
    958 C          -18.2840     9.3828    -9.1720 C       5      r5     0.1546
    959 C           18.3629     8.3778    -9.9237 C       5      r5    -0.0172
    960 C           18.0325     7.4009    -9.0627 C       5      r5    -0.0284
    961 C           18.3721     7.7418    -7.6235 C       5      r5     0.0539
    962 O          -18.1152     9.2660    -7.9047 O       5      r5    -0.4620
    963 C           16.9226    16.9652    -6.0678 C       0      r0    -0.0021
    964 C          -16.0145     7.0833   -11.7665 C       0      r0    -0.0170
    965 H           14.9550    11.7109    -9.5460 H       0      r0     0.1100
    966 H           16.7626     9.8209    -9.7165 H       0      r0     0.0449
    967 H           15.8136    12.1130   -12.3701 H       0      r0     0.0301
    968 H           17.8719    10.5336   -12.3252 H       0      r0     0.0615
    969 H           17.2849    15.3715   -13.8907 H       0      r0     0.1087
    970 H           16.3684    15.0628   -10.9277 H       0      r0     0.0697
    971 H           14.9937    14.4079   -10.1702 H       0      r0     0.0533
    972 H          -17.0894    10.1789   -10.7604 H       0      r0     0.1046
    973 H          -17.1299    11.2516    -9.3362 H       0      r0     0.0971
    974 H          -16.3692    12.0637   -13.9304 H       0      r0     0.0740
    975 H           12.5469    14.0929   -11.6015 H       0      r0     0.0894
    976 H           14.5611    12.8493   -12.4396 H       0      r0     0.0483
    977 H          -14.6014    10.5799   -13.8469 H       0      r0     0.0806
    978 H          -13.9643     8.2127   -12.8046 H       0      r0     0.0781
    979 H           17.8975    14.3086    -5.9248 H       0      r0     0.0687
    980 H           17.5423    13.0544    -8.2248 H       0      r0     0.1489
    981 H           18.3301     8.3692   -10.9590 H       0      r0     0.0821
    982 H           17.6335     6.4896    -9.4967 H       0      r0     0.0676
    983 H           17.3327    16.8199    -5.0886 H       0      r0     0.0951
    984 H           16.6051    18.0017    -6.2412 H       0      r0     0.1174
    985 H          -15.1469     6.4243   -11.8257 H       0      r0     0.0887
    986 H          -16.8331     6.5380   -11.3900 H       0      r0     0.1009
    987 C           14.9995     3.4712    -6.8671 C       6      r6     0.0709
    988 C           15.8528     2.4874    -7.6029 C       6      r6    -0.0502
    989 C           15.3156     1.3881    -7.1943 C       6      r6    -0.0308
    990 C           14.2376     1.6402    -6.0940 C       6      r6     0.1278
    991 C           14.5811     2.4225    -3.5709 C       5      r5     0.1686
    992 O           14.5609     3.7091    -3.2771 O       5      r5    -0.4759
    993 C           15.2192     4.3985    -4.3739 C       5      r5     0.1386
    994 C           15.7014     3.4790    -5.4549 C       6      r6    -0.0020
    995 C           15.1609     2.1436    -4.9094 C       6      r6     0.0278
    996 C           15.3678     5.7520    -4.3267 C       0      r0     0.0204
    997 C           15.1116     4.9062    -7.5506 C       0      r0    -0.0300
    998 C           13.3798     0.3064    -5.7925 C       0      r0    -0.0077
    999 C           14.2532     1.3566    -2.6674 C       0      r0    -0.0083
   1000 O           13.5490     2.7837    -6.3926 O       5      r5    -0.4650
   1001 C           16.3492     8.5679    -6.2265 C       5      r5     0.1355
   1002 C           17.2591     7.5939    -6.6613 C       5      r5     0.0032
   1003 C           17.0725     6.3288    -6.0074 C       5      r5    -0.0325
   1004 C           15.9885     6.6805    -5.2433 C       5      r5     0.1185
   1005 O           15.5290     8.0726    -5.1961 O       5      r5    -0.4817
   1006 O           15.2268    -0.7410    -3.8738 O       0      r0    -0.4825
   1007 C           14.4764     0.0062    -2.8093 C       0      r0     0.0951
   1008 C           13.9657    -0.7905    -1.7801 C       0      r0    -0.0291
   1009 C           14.1014    -2.2097    -1.9481 C       0      r0    -0.0271
   1010 C           14.6768    -2.2451    -3.2040 C       0      r0     0.0812
   1011 O           14.6286     5.6265    -9.9825 O       5      r5    -0.4712
   1012 C           13.5339     4.9328   -10.9108 C       5      r5     0.0860
   1013 C           12.8158     3.8949   -10.1625 C       5      r5    -0.0351
   1014 C           13.3505     3.8877    -8.9001 C       5      r5    -0.0103
   1015 C           14.3394     4.8608    -8.9066 C       5      r5     0.1401
   1016 C           12.1080     0.3449    -6.6879 C       0      r0     0.1348
   1017 C           12.3121     0.5416    -7.9792 C       0      r0    -0.0128
   1018 C           11.1782     0.7784    -8.9670 C       0      r0    -0.0128
   1019 C           11.2337     0.8655   -10.3179 C       0      r0     0.1050
   1020 O           10.7710     0.1084    -6.0363 O       0      r0    -0.4831
   1021 C           13.3230     5.1931   -12.0900 C       0      r0    -0.0419
   1022 C           14.7204    -3.3977    -3.7114 C       0      r0    -0.0344
   1023 H           16.6324     2.6573    -8.2802 H       0      r0     0.0442
   1024 H           15.6427     0.3875    -7.5198 H       0      r0     0.1011
   1025 H           16.7668     3.6222    -5.6225 H       0      r0     0.0365
   1026 H           15.8222     1.3291    -4.7151 H       0      r0     0.0663
   1027 H           14.8031     6.0667    -3.4394 H       0      r0     0.0966
   1028 H           14.8712     5.8178    -6.9467 H       0      r0     0.0681
   1029 H           16.1643     5.0962    -7.6277 H       0      r0     0.0388
   1030 H           14.1324    -0.4444    -6.0385 H       0      r0     0.0652
   1031 H           13.0284     0.1859    -4.7776 H       0      r0     0.0844
   1032 H           13.8220     1.5378    -1.6814 H       0      r0     0.0511
   1033 H          -18.2370     6.9739    -7.2752 H       0      r0     0.0655
   1034 H           17.6178     5.4029    -6.1437 H       0      r0     0.0483
   1035 H           13.4202    -0.3621    -0.9867 H       0      r0     0.0507
   1036 H           13.8210    -3.0082    -1.2040 H       0      r0     0.0701
   1037 H           11.9510     3.2953   -10.4689 H       0      r0     0.0533
   1038 H           13.1002     3.2630    -8.0555 H       0      r0     0.1284
   1039 H           13.3128     0.5560    -8.2459 H       0      r0     0.0454
   1040 H           10.0996     1.0177    -8.7166 H       0      r0     0.1234
   1041 H           12.5104     4.7299   -12.5933 H       0      r0     0.0444
   1042 H           13.8621     5.9701   -12.6526 H       0      r0     0.0540
   1043 H           14.2327    -4.2120    -3.2179 H       0      r0     0.0472
   1044 H           15.2170    -3.6076    -4.6099 H       0      r0     0.0769
   1045 C          -16.5143    16.6731   -12.1479 C       6      r6     0.1193
   1046 C          -17.1644    15.5128   -11.4352 C       6      r6    -0.0023
   1047 C          -16.5708    14.2901   -11.3952 C       6      r6     0.0069
   1048 C          -15.3537    14.1940   -12.2020 C       6      r6    -0.0085
   1049 C          -13.9616    15.5756   -14.1046 C       5      r5     0.1407
   1050 O          -14.1329    16.8844   -14.5034 O       5      r5    -0.4937
   1051 C          -15.5166    17.1376   -14.3955 C       5      r5     0.1553
   1052 C          -16.3099    16.1438   -13.5982 C       6      r6     0.0176
   1053 C          -15.2463    14.9643   -13.5292 C       6      r6    -0.0022
   1054 C          -16.1827    18.0600   -15.1615 C       0      r0     0.0174
   1055 C          -17.5179    17.9109   -12.1937 C       0      r0     0.0194
   1056 C          -14.3915    13.3509   -11.7152 C       0      r0    -0.0170
   1057 C          -12.8587    14.7928   -14.5055 C       0      r0     0.0007
   1058 O          -15.2190    17.1431   -11.7462 O       0      r0    -0.5550
   1059 C           17.5341    18.4193   -15.0648 C       5      r5     0.1313
   1060 C           17.8629   -18.2751   -15.6980 C       5      r5    -0.0024
   1061 C          -18.0375   -18.4336   -15.7755 C       5      r5    -0.0048
   1062 C          -17.6071    18.2666   -15.1896 C       5      r5     0.1519
   1063 O          -18.6098    17.4259   -14.7377 O       5      r5    -0.4920
   1064 O          -13.6676    12.4033   -14.4301 O       0      r0    -0.5669
   1065 C          -12.7357    13.3552   -14.6494 C       0      r0     0.1297
   1066 C          -11.4238    13.1826   -14.9387 C       0      r0    -0.0256
   1067 C          -10.8574    11.8305   -15.1475 C       0      r0    -0.0255
   1068 C          -11.4362    10.5692   -15.0932 C       0      r0    -0.0039
   1069 O           17.9560   -18.6516   -11.1825 O       0      r0    -0.4934
   1070 C           18.1311   -18.4944    -8.2263 C       0      r0     0.1387
   1071 C          -18.1184    18.6571    -8.4464 C       0      r0    -0.0158
   1072 C          -17.5831    18.1666    -9.8293 C       0      r0    -0.0039
   1073 C          -18.0818    18.4446   -10.9059 C       0      r0     0.1235
   1074 C          -14.4411    12.6292   -10.4509 C       3      r3    -0.0126
   1075 C          -14.3312    12.8524    -9.1107 C       3      r3    -0.0114
   1076 C          -12.4797    11.7291    -8.8446 C       0      r0     0.0115
   1077 C          -11.6781    12.9943    -8.2542 C       0      r0     0.1206
   1078 O          -11.6116    14.1745    -8.9733 O       0      r0    -0.5454
   1079 C          -11.1505    12.8139    -7.1693 C       0      r0    -0.0298
   1080 C           16.2565    18.3801   -14.9522 C       0      r0    -0.0216
   1081 H          -18.0648    15.5669   -10.8350 H       0      r0     0.0729
   1082 H          -16.7909    13.5749   -10.6740 H       0      r0     0.1021
   1083 H          -17.2275    15.8557   -14.1652 H       0      r0     0.1103
   1084 H          -15.1571    14.1764   -14.3509 H       0      r0     0.0820
   1085 H          -15.3717    18.6688   -15.6443 H       0      r0     0.0733
   1086 H          -17.0103    18.7250   -12.7314 H       0      r0     0.1219
   1087 H          -18.4185    17.7280   -12.8928 H       0      r0     0.1357
   1088 H          -13.8239    11.8247   -15.3717 H       0      r0     0.2294
   1089 H          -13.5659    13.1466   -12.3838 H       0      r0     0.1061
   1090 H          -12.0718    15.4238   -14.7732 H       0      r0     0.1007
   1091 H           17.2043   -17.4697   -16.0199 H       0      r0     0.1164
   1092 H          -17.3919   -17.6492   -16.1504 H       0      r0     0.0458
   1093 H          -10.8690    14.0790   -15.0416 H       0      r0     0.0595
   1094 H           -9.8096    11.7065   -15.4697 H       0      r0     0.0815
   1095 H          -17.6181    18.4486    -7.4814 H       0      r0     0.0509
   1096 H          -16.7774    17.4718    -9.7914 H       0      r0     0.1029
   1097 H          -14.1726    13.6181    -8.3310 H       0      r0     0.0938
   1098 H          -13.5720     6.4373    -4.6165 H       0      r0     0.3674
   1099 H          -11.2595    11.7816    -6.8512 H       0      r0     0.0895
   1100 H          -10.6647    13.5636    -6.5492 H       0      r0     0.0577
   1101 H           15.5525   -18.8599   -15.2775 H       0      r0     0.0417
   1102 H           15.8164    17.5493   -14.4179 H       0      r0     0.1189
   1103 C          -14.2315     7.4472    -6.1345 C       6      r6     0.1247
   1104 C          -15.5633     7.4852    -5.3982 C       6      r6    -0.0145
   1105 C          -16.5443     6.5561    -5.5877 C       6      r6    -0.0219
   1106 C          -16.2869     5.3945    -6.4617 C       6      r6    -0.0296
   1107 C          -14.6846     4.4753    -8.1696 C       5      r5     0.1689
   1108 O          -13.3913     4.6750    -8.2078 O       5      r5    -0.5146
   1109 C          -13.3148     6.2120    -8.2694 C       5      r5     0.1529
   1110 C          -14.4694     6.9310    -7.6505 C       6      r6     0.0113
   1111 C          -15.5090     5.6104    -7.6966 C       6      r6     0.0036
   1112 C          -12.2787     6.7523    -8.8642 C       0      r0     0.0394
   1113 C          -13.7745     8.9251    -6.2344 C       0      r0     0.0110
   1114 C          -16.9202     4.1890    -6.1223 C       0      r0    -0.0279
   1115 C          -15.2390     3.2383    -8.7231 C       0      r0     0.0101
   1116 O          -13.1915     6.8035    -5.4244 O       0      r0    -0.5808
   1117 C          -12.1243    10.3594    -8.8783 C       5      r5     0.1031
   1118 C          -10.7846    10.0446    -8.5626 C       5      r5    -0.0226
   1119 C          -10.7649     8.6831    -8.7124 C       5      r5    -0.0077
   1120 C          -12.0591     8.1998    -9.0453 C       5      r5     0.1529
   1121 O          -13.0531     9.0694    -9.1843 O       5      r5    -0.4764
   1122 O          -17.0069     4.4438    -9.7930 O       0      r0    -0.5654
   1123 C          -16.5067     3.2444    -9.3636 C       0      r0     0.1416
   1124 C          -16.9200     1.9467    -9.3259 C       0      r0    -0.0253
   1125 C          -18.2731     1.5454    -9.8012 C       0      r0    -0.0342
   1126 C           18.1355     2.3402   -10.4933 C       0      r0    -0.0131
   1127 O          -11.9365    10.1521    -5.5407 O       0      r0    -0.4858
   1128 C          -11.5794    10.7888    -2.8008 C       0      r0     0.1782
   1129 C          -12.6421     9.9135    -2.6745 C       0      r0    -0.0162
   1130 C          -13.2258     9.1821    -3.7959 C       0      r0     0.0056
   1131 C          -12.7699     9.4296    -5.1338 C       0      r0     0.2028
   1132 C          -17.7009     3.9953    -4.9774 C       5      r5     0.1319
   1133 C          -18.0448     2.6224    -4.8462 C       5      r5    -0.0227
   1134 C           18.3921     2.3902    -3.7205 C       5      r5    -0.0516
   1135 C           18.3388     3.7286    -3.2314 C       5      r5     0.0895
   1136 O          -18.1729     4.8931    -4.0590 O       5      r5    -0.4831
   1137 C           17.6125     3.7829    -2.1834 C       0      r0    -0.0390
   1138 C          -13.7038    11.6538    -9.5976 C       3      r3     0.0206
   1139 H          -15.6610     8.2441    -4.6129 H       0      r0     0.1086
   1140 H          -17.4459     6.4472    -5.0343 H       0      r0     0.1186
   1141 H          -14.8441     7.7679    -8.2239 H       0      r0     0.0756
   1142 H          -16.1888     5.8906    -8.5421 H       0      r0     0.1042
   1143 H          -11.5073     6.1873    -9.3556 H       0      r0     0.0907
   1144 H          -13.3356     9.1510    -7.1669 H       0      r0     0.1255
   1145 H          -14.6666     9.5793    -6.3581 H       0      r0     0.0404
   1146 H          -17.4241     4.1869   -10.7503 H       0      r0     0.3524
   1147 H          -16.8619     3.3276    -6.7509 H       0      r0     0.0614
   1148 H          -14.7934     2.2435    -8.5549 H       0      r0     0.0484
   1149 H           -9.9289    10.6963    -8.3521 H       0      r0     0.0473
   1150 H           -9.8290     8.0350    -8.5938 H       0      r0     0.0968
   1151 H          -16.3922     1.1816    -8.8150 H       0      r0     0.0734
   1152 H           18.5972     0.5743    -9.5963 H       0      r0     0.0916
   1153 H          -12.8414     9.6603    -1.6756 H       0      r0     0.0579
   1154 H          -14.0948     8.6247    -3.7872 H       0      r0     0.0931
   1155 H          -17.7162     1.7214    -5.3826 H       0      r0     0.1038
   1156 H           17.9143     1.5039    -3.3435 H       0      r0     0.0324
   1157 H           17.2058     2.8439    -1.7188 H       0      r0     0.0374
   1158 H           17.4082     4.6867    -1.5997 H       0      r0     0.0580
   1159 H          -14.5231    16.9017   -12.4131 H       0      r0     0.3163
   1160 H          -11.2405    14.8237    -8.2600 H       0      r0     0.2484
   1161 C            6.5940    -7.4767   -13.2645 C       0      r0     0.2327
   1162 C            7.2214    -8.5742   -14.0513 C       0      r0     0.0074
   1163 C            7.8165    -8.4755   -15.2343 C       0      r0    -0.0247
   1164 C            7.8296    -7.3567   -16.1655 C       0      r0     0.1815
   1165 C            8.6276    -7.4545   -17.5202 C       0      r0     0.0091
   1166 O            7.2367    -6.3504   -16.0518 O       0      r0    -0.4898
   1167 O            5.6895    -7.5645   -12.5381 O       0      r0    -0.4625
   1168 C            9.9321    -8.2835   -17.3993 C       5      r5     0.1423
   1169 C            9.9956    -9.4636   -18.0927 C       5      r5    -0.0223
   1170 C           11.1183   -10.1227   -17.6343 C       5      r5    -0.0046
   1171 C           11.8143    -9.3052   -16.6136 C       5      r5     0.1051
   1172 O           10.9113    -8.0151   -16.5036 O       5      r5    -0.4559
   1173 C           12.8416    -9.5822   -16.0310 C       0      r0    -0.0184
   1174 C            7.3531    -6.0910   -13.2791 C       0      r0     0.0352
   1175 C            7.9499    -5.1733    -8.5065 C       0      r0     0.0941
   1176 C            8.4676    -5.6060    -9.7587 C       0      r0    -0.0197
   1177 C            7.7561    -5.6312   -11.0331 C       0      r0    -0.0040
   1178 C            8.3180    -6.0114   -12.1828 C       0      r0     0.1664
   1179 O            9.5551    -6.3056   -12.5407 O       0      r0    -0.5074
   1180 H            7.2368    -9.4535   -13.4736 H       0      r0     0.0776
   1181 H            8.2814    -9.4427   -15.4830 H       0      r0     0.0301
   1182 H            7.9103    -7.8778   -18.2490 H       0      r0     0.0580
   1183 H            8.8395    -6.4257   -17.9312 H       0      r0     0.1406
   1184 H            9.3703    -9.8098    18.5320 H       0      r0     0.0634
   1185 H           11.5177   -11.0953   -17.9790 H       0      r0     0.1230
   1186 H           13.3214   -10.5388   -16.2399 H       0      r0     0.0793
   1187 H           13.4238    -8.9752   -15.3800 H       0      r0     0.0682
   1188 H            8.0051    -5.9565   -14.1741 H       0      r0     0.1191
   1189 H            6.6701    -5.2638   -13.2620 H       0      r0     0.0696
   1190 H            9.4720    -6.0299    -9.6597 H       0      r0     0.0815
   1191 H            6.7049    -5.5241   -10.8552 H       0      r0     0.0610
   1192 C           16.8997     4.0986     7.0298 C       0      r0     0.1861
   1193 C           16.4230     4.0693     5.6023 C       0      r0     0.0025
   1194 C           15.3878     4.6225     5.0545 C       0      r0     0.0013
   1195 C           14.2688     5.3567     5.7338 C       0      r0     0.1977
   1196 C           13.0163     5.4755     4.7641 C       0      r0     0.0052
   1197 O           14.1271     5.6974     6.8308 O       0      r0    -0.4490
   1198 O           16.3488     4.3671     8.0033 O       0      r0    -0.4563
   1199 C           13.4202     6.0828     3.3856 C       5      r5     0.1315
   1200 C           14.1027     7.2630     3.3968 C       5      r5    -0.0095
   1201 C           14.4475     7.4766     2.0519 C       5      r5    -0.0169
   1202 C           13.8860     6.5073     1.1156 C       5      r5     0.0740
   1203 O           12.9969     5.5493     2.2157 O       5      r5    -0.4570
   1204 C           13.9940     6.5173    -0.0857 C       0      r0    -0.0459
   1205 C           18.4994     3.9690     7.1613 C       0      r0     0.0123
   1206 C          -18.5357    -0.4415     6.2389 C       0      r0     0.1722
   1207 C           18.4732     0.2605     7.3260 C       0      r0     0.0104
   1208 C           18.3112     1.7586     7.4494 C       0      r0     0.0043
   1209 C          -18.3675     2.6615     6.7433 C       0      r0     0.1506
   1210 O          -17.3957     2.6621     5.7687 O       0      r0    -0.4923
   1211 H           17.1919     3.5155     5.0362 H       0      r0     0.0595
   1212 H           15.1996     4.5380     4.0362 H       0      r0     0.0567
   1213 H           12.6058     4.4775     4.6262 H       0      r0     0.0778
   1214 H           12.1007     5.9882     5.1701 H       0      r0     0.1390
   1215 H           14.3659     7.7624     4.2909 H       0      r0     0.0657
   1216 H           15.0678     8.2465     1.7031 H       0      r0     0.0626
   1217 H           14.4827     7.3340    -0.5973 H       0      r0     0.0405
   1218 H           13.4335     5.7925    -0.6766 H       0      r0     0.0722
   1219 H          -18.2315     4.7723     6.6752 H       0      r0     0.1036
   1220 H          -18.4267     4.2216     8.1797 H       0      r0     0.1194
   1221 H           18.3599    -0.4733     8.1498 H       0      r0     0.1078
   1222 H           17.7086     2.0728     8.2922 H       0      r0     0.0952
   1223 C           -0.6289    15.1812    -2.8669 C       5      r5     0.1019
   1224 O            0.4771    16.1484    -2.2587 O       5      r5    -0.4967
   1225 C            1.2835    15.1425    -1.7996 C       5      r5     0.1242
   1226 C            0.7601    13.8395    -1.8684 C       5      r5    -0.0301
   1227 C           -0.4896    13.8529    -2.5660 C       5      r5    -0.0276
   1228 C           -1.7021    15.6045    -3.7028 C       0      r0    -0.0069
   1229 C            3.4845    16.2446    -0.8066 C       0      r0     0.1515
   1230 O            4.7658    16.1067    -0.4586 O       0      r0    -0.4532
   1231 C            4.5811    18.9408     0.0531 C       0      r0    -0.0285
   1232 C            3.3266    18.6204    -0.4542 C       0      r0    -0.0454
   1233 C            2.7085    17.3781    -0.9018 C       0      r0    -0.0179
   1234 C            2.6151    15.2146    -1.2747 C       0      r0    -0.0047
   1235 C           -2.7528    14.7873    -4.1461 C       5      r5     0.0936
   1236 C           -3.4784    15.5722    -4.9866 C       5      r5    -0.0181
   1237 C           -4.5299    14.6559    -5.4148 C       5      r5    -0.0183
   1238 C           -4.3011    13.4107    -4.7485 C       5      r5     0.1042
   1239 O           -3.0856    13.2722    -3.6775 O       5      r5    -0.4882
   1240 C           -5.1520    12.5778    -5.0797 C       0      r0    -0.0072
   1241 H            1.2027    12.9641    -1.4657 H       0      r0     0.0662
   1242 H           -1.1183    13.0484    -2.8282 H       0      r0     0.0801
   1243 H           -1.5397    16.6604    -3.9334 H       0      r0     0.0719
   1244 H            2.8004   -18.3461    -0.6299 H       0      r0     0.0329
   1245 H            1.7029    17.3824    -1.2888 H       0      r0     0.0973
   1246 H            3.2402    14.3197    -1.1165 H       0      r0     0.0700
   1247 H           -3.3187    16.6313    -5.2376 H       0      r0     0.1184
   1248 H           -5.2859    14.8640    -6.1838 H       0      r0     0.0752
   1249 H           -5.9281    12.7048    -5.8078 H       0      r0     0.1224
   1250 H           -5.1918    11.5628    -4.6979 H       0      r0     0.0691
   1251 C            1.9291    17.5708   -16.3540 C       5      r5     0.1502
   1252 O            3.1546    18.1553   -16.6514 O       5      r5    -0.4760
   1253 C            3.1896   -18.9371   -15.3456 C       5      r5     0.0928
   1254 C            2.1434    18.8264   -14.4390 C       5      r5    -0.0136
   1255 C            1.3571    17.8951   -15.1636 C       5      r5     0.0326
   1256 C            1.2695    16.6933   -17.2939 C       0      r0     0.0202
   1257 C            4.3133   -17.1965   -14.0478 C       0      r0     0.1644
   1258 O            5.3937   -16.7977   -13.5220 O       0      r0    -0.5245
   1259 C            3.9384   -15.1873   -11.8027 C       0      r0     0.0084
   1260 C            2.8754   -15.6169   -12.7343 C       0      r0    -0.0290
   1261 C            3.0719   -16.6042   -13.7005 C       0      r0    -0.0215
   1262 C            4.2507   -18.1361   -15.2073 C       0      r0     0.0217
   1263 C           -0.0710    16.3307   -17.1870 C       5      r5     0.1719
   1264 C           -0.7452    15.9037   -18.3972 C       5      r5     0.0220
   1265 C           -2.1227    15.7474   -18.2199 C       5      r5    -0.0087
   1266 C           -2.1860    16.1489   -16.8346 C       5      r5     0.1137
   1267 O           -0.8347    16.4571   -16.0605 O       5      r5    -0.4664
   1268 C           -3.3783    16.1192   -16.4696 C       0      r0    -0.0358
   1269 H            1.9640   -18.6656   -13.4411 H       0      r0     0.0914
   1270 H            0.4791    17.4801   -14.7341 H       0      r0     0.1525
   1271 H            1.6841    16.4883   -18.2235 H       0      r0     0.0577
   1272 H            1.8863   -15.2156   -12.5583 H       0      r0     0.0708
   1273 H            2.3099   -16.8195   -14.4121 H       0      r0     0.0307
   1274 H            4.9897   -18.1762   -15.9614 H       0      r0     0.1262
   1275 H           -0.2036    15.8466    18.0109 H       0      r0     0.0880
   1276 H           -2.9215    15.4567    18.4930 H       0      r0     0.1033
   1277 H           -4.1609    15.8497   -17.1602 H       0      r0     0.0939
   1278 H           -3.6251    16.4381   -15.4309 H       0      r0     0.0564
   1279 C            8.8640   -10.6529   -12.1980 C       5      r5     0.1451
   1280 O            9.1124    -9.3705   -11.5740 O       5      r5    -0.4402
   1281 C            9.8756    -8.8124   -12.6960 C       5      r5     0.1351
   1282 C           10.2563    -9.9005   -13.6091 C       5      r5    -0.0497
   1283 C            9.6909   -11.1162   -13.3011 C       5      r5    -0.0582
   1284 C            8.0909   -11.6332   -11.8847 C       0      r0     0.1518
   1285 C           10.0323    -7.5724   -13.0739 C       0      r0     0.1410
   1286 H           10.9777    -9.7834   -14.3816 H       0      r0     0.0480
   1287 H            9.7912   -12.0574   -13.8036 H       0      r0     0.0860
   1288 H            8.0969   -12.5765   -12.4933 H       0      r0     0.0788
   1289 H           10.6260    -7.4182   -13.9407 H       0      r0     0.0962
   1290 C            0.8772     2.6320     6.6090 C       5      r5     0.1160
   1291 O            2.3976     3.0233     6.7897 O       5      r5    -0.4827
   1292 C            2.3922     3.0234     8.1509 C       5      r5     0.1377
   1293 C            1.1913     2.7245     8.9098 C       5      r5    -0.0267
   1294 C            0.2787     2.5064     7.9459 C       5      r5     0.0010
   1295 C            0.1661     2.5046     5.5278 C       0      r0    -0.0097
   1296 C            3.4834     3.3252     9.0402 C       0      r0    -0.0336
   1297 H            1.0719     2.7223    10.0393 H       0      r0     0.0413
   1298 H           -0.8215     2.2637     8.0830 H       0      r0     0.0847
   1299 H           -0.6031     2.3499     4.8388 H       0      r0     0.0549
   1300 H            3.3164     3.0836    10.0771 H       0      r0     0.0367
   1301 C            8.6818    -3.2671     4.2609 C       0      r0     0.0924
   1302 O            9.5399    -4.1238     5.4454 O       0      r0    -0.4603
   1303 C            8.1591    -3.8239     6.3488 C       0      r0     0.0933
   1304 C            7.0697    -3.0627     5.9352 C       0      r0    -0.0320
   1305 C            7.4425    -2.6194     4.6592 C       0      r0    -0.0378
   1306 C            9.1276    -3.1624     3.0132 C       0      r0    -0.0165
   1307 C            7.8506    -4.2162     7.6074 C       0      r0    -0.0413
   1308 H            6.1786    -2.6907     6.4566 H       0      r0     0.0457
   1309 H            6.8942    -1.9538     4.0148 H       0      r0     0.0455
   1310 H            9.1620    -2.8818     1.9323 H       0      r0     0.0630
   1311 H            7.4228    -4.4445     8.5986 H       0      r0     0.0461
   1312 C            7.8824     0.6718     4.1133 C       0      r0     0.0884
   1313 O            6.5825     1.6273     3.5649 O       0      r0    -0.4663
   1314 C            5.8915     1.4570     4.9961 C       0      r0     0.0995
   1315 C            6.6063     0.5835     5.9482 C       0      r0    -0.0108
   1316 C            7.8301     0.0872     5.4382 C       0      r0    -0.0252
   1317 C            9.0224     0.3715     3.5665 C       0      r0    -0.0390
   1318 C            4.8376     1.9278     5.5734 C       0      r0    -0.0253
   1319 H            6.1967     0.2946     6.9114 H       0      r0     0.0644
   1320 H            8.5318    -0.5757     5.9962 H       0      r0     0.0551
   1321 H           10.0343    -0.0035     3.3883 H       0      r0     0.0528
   1322 H            4.0062     2.2573     6.1544 H       0      r0     0.1233
   1323 C            5.4491     8.5615   -10.3930 C       6      r6     0.0785
   1324 C            4.1169     7.9998   -10.1398 C       6      r6    -0.0404
   1325 C            3.5864     9.0484    -9.5018 C       6      r6    -0.0377
   1326 C            4.5201    10.2378    -9.4850 C       6      r6     0.1474
   1327 C            6.5479    10.5814    -7.8665 C       5      r5     0.1621
   1328 O            7.7365    10.1696    -8.5102 O       5      r5    -0.4645
   1329 C            7.5038     8.8627    -8.9179 C       5      r5     0.1603
   1330 C            6.0531     8.4960    -8.9410 C       6      r6     0.0138
   1331 C            5.3753     9.7039    -8.2262 C       6      r6     0.0209
   1332 C            8.5407     8.0071    -9.2753 C       0      r0     0.0116
   1333 C            6.2868     7.7753   -11.5308 C       0      r0    -0.0033
   1334 C            3.6772    11.5555    -9.1217 C       0      r0    -0.0010
   1335 C            6.4814    11.6276    -7.0114 C       0      r0     0.0275
   1336 O            5.4349    10.2218   -10.4990 O       5      r5    -0.4514
   1337 C            7.5824     4.6347    -9.9559 C       5      r5     0.1234
   1338 C            9.0313     4.6308   -10.1945 C       5      r5    -0.0294
   1339 C            9.5432     5.9208    -9.8922 C       5      r5    -0.0300
   1340 C            8.4352     6.6242    -9.5422 C       5      r5     0.0996
   1341 O            7.0812     5.9037    -9.4746 O       5      r5    -0.4926
   1342 O            4.0556    11.1766    -6.2920 O       5      r5    -0.4873
   1343 C            5.2749    11.9727    -6.2856 C       5      r5     0.1190
   1344 C            5.3857    13.0768    -5.4623 C       5      r5    -0.0198
   1345 C            4.2026    13.0690    -4.7417 C       5      r5    -0.0384
   1346 C            3.3711    11.9782    -5.1956 C       5      r5     0.1093
   1347 O            5.7074     6.6211   -13.7274 O       5      r5    -0.4837
   1348 C            4.7007     7.1721   -14.8685 C       5      r5     0.1048
   1349 C            4.2056     8.4896   -14.4445 C       5      r5    -0.0221
   1350 C            4.7553     8.7624   -13.2242 C       5      r5    -0.0160
   1351 C            5.5323     7.6739   -12.8879 C       5      r5     0.1462
   1352 C            2.6976    11.8820   -10.2587 C       5      r5     0.1417
   1353 C            1.3984    11.4520   -10.1304 C       5      r5    -0.0280
   1354 C            0.7657    11.7259   -11.2901 C       5      r5    -0.0296
   1355 C            1.6760    12.3871   -12.2578 C       5      r5     0.0686
   1356 O            3.1171    12.4750   -11.4070 O       5      r5    -0.4372
   1357 C            4.3474     6.5391   -15.8957 C       0      r0    -0.0184
   1358 C            2.1687    11.6857    -4.6882 C       0      r0    -0.0445
   1359 H            3.6498     7.0473   -10.3456 H       0      r0     0.0599
   1360 H            2.5499     9.1225    -9.2134 H       0      r0     0.0336
   1361 H            5.9357     7.4288    -8.6045 H       0      r0     0.0810
   1362 H            4.8217     9.5705    -7.3263 H       0      r0     0.0899
   1363 H            9.5412     8.4540    -9.2829 H       0      r0     0.0802
   1364 H            7.3227     8.0720   -11.6096 H       0      r0     0.1092
   1365 H            6.2889     6.7703   -11.1011 H       0      r0     0.1071
   1366 H            3.2932    11.4414    -8.0911 H       0      r0     0.0856
   1367 H            4.4241    12.3336    -9.0869 H       0      r0     0.1103
   1368 H            7.3691    12.1703    -6.9233 H       0      r0     0.1139
   1369 H            9.5917     3.8016   -10.4569 H       0      r0     0.0388
   1370 H           10.6061     6.2291    -9.9568 H       0      r0     0.0476
   1371 H            6.1511    13.8593    -5.4115 H       0      r0     0.0934
   1372 H            3.9447    13.7682    -3.9382 H       0      r0     0.0358
   1373 H            3.5721     9.1844   -14.9491 H       0      r0     0.1050
   1374 H            4.6562     9.6243   -12.5944 H       0      r0     0.0959
   1375 H            1.1258    10.9391    -9.2333 H       0      r0     0.0586
   1376 H           -0.2455    11.4840   -11.3818 H       0      r0     0.0703
   1377 H            3.7012     6.9568   -16.6840 H       0      r0     0.0999
   1378 H            4.6975     5.5069   -16.0210 H       0      r0     0.0576
   1379 H            1.7606    12.1698    -3.7539 H       0      r0     0.0393
   1380 H            1.6434    10.8380    -5.1355 H       0      r0     0.0606
   1381 C           -1.2949     8.2435   -14.4585 C       6      r6     0.0824
   1382 C           -2.0828     7.9423   -13.2641 C       6      r6    -0.0214
   1383 C           -3.1356     7.4067   -13.8038 C       6      r6    -0.0274
   1384 C           -3.1495     7.5046   -15.3742 C       6      r6     0.1340
   1385 C           -3.4249     9.4722   -16.9466 C       5      r5     0.1634
   1386 O           -2.2902     9.8935   -17.5697 O       5      r5    -0.4944
   1387 C           -1.3945    10.0558   -16.4316 C       5      r5     0.1344
   1388 C           -1.8867     9.5829   -15.0746 C       6      r6     0.0057
   1389 C           -3.2194     9.0938   -15.5888 C       6      r6     0.0484
   1390 C           -0.0653    10.3890   -16.5433 C       0      r0     0.0083
   1391 C            0.2578     8.1619   -14.1848 C       0      r0    -0.0167
   1392 C           -4.3098     6.5981   -15.9742 C       0      r0     0.0047
   1393 C           -4.6871     9.4596   -17.5451 C       0      r0     0.0066
   1394 O           -1.8744     7.3933   -15.8256 O       5      r5    -0.4672
   1395 C            2.7540    11.2380   -14.4522 C       5      r5     0.1145
   1396 C            1.6715    11.6385   -13.5973 C       5      r5    -0.0028
   1397 C            0.5334    11.2115   -14.3479 C       5      r5    -0.0301
   1398 C            0.9271    10.6241   -15.5430 C       5      r5     0.1196
   1399 O            2.3150    10.5045   -15.7550 O       5      r5    -0.4726
   1400 O           -5.8733     8.8561   -15.4368 O       5      r5    -0.4906
   1401 C           -5.8433     9.1024   -16.8078 C       5      r5     0.1252
   1402 C           -7.0889     9.1162   -17.5139 C       5      r5    -0.0073
   1403 C           -8.1862     8.8811   -16.6582 C       5      r5    -0.0146
   1404 C           -7.4622     8.6527   -15.4514 C       5      r5     0.1030
   1405 O            0.3319     6.1712   -12.5225 O       5      r5    -0.4567
   1406 C            0.6454     4.6586   -12.9231 C       5      r5     0.1059
   1407 C            1.0385     4.6434   -14.3182 C       5      r5    -0.0170
   1408 C            1.0738     5.9628   -14.7824 C       5      r5    -0.0118
   1409 C            0.6629     6.7121   -13.7262 C       5      r5     0.1508
   1410 C           -3.9738     5.0361   -16.1678 C       0      r0     0.1862
   1411 C           -2.7057     4.7561   -15.5550 C       0      r0    -0.0007
   1412 C           -2.1278     3.4320   -15.6413 C       0      r0    -0.0205
   1413 C           -2.6598     2.2776   -16.1681 C       0      r0     0.1138
   1414 O           -4.7035     4.3168   -16.7482 O       0      r0    -0.4636
   1415 C            0.5557     3.5517   -12.2608 C       0      r0    -0.0300
   1416 C           -8.2532     8.4066   -14.4915 C       0      r0    -0.0410
   1417 H           -1.8709     8.0454   -12.2053 H       0      r0     0.0650
   1418 H           -3.9758     7.0146   -13.2985 H       0      r0     0.0663
   1419 H           -2.0753    10.4331   -14.3318 H       0      r0     0.1014
   1420 H           -4.0376     9.4557   -14.9132 H       0      r0     0.0943
   1421 H            0.2038    10.3206   -17.6084 H       0      r0     0.0902
   1422 H            0.9714     8.4054   -15.0155 H       0      r0     0.0621
   1423 H            0.6797     8.9775   -13.6002 H       0      r0     0.0502
   1424 H           -5.2057     6.6976   -15.3984 H       0      r0     0.0936
   1425 H           -4.6365     6.8764   -16.9890 H       0      r0     0.0851
   1426 H           -4.6635     9.6480   -18.6250 H       0      r0     0.0825
   1427 H            1.3605    13.3922   -12.5841 H       0      r0     0.0724
   1428 H           -0.4889    11.4511   -14.1334 H       0      r0     0.0815
   1429 H           -7.1751     9.3428   -18.5596 H       0      r0     0.0839
   1430 H           -9.2310     8.7199   -16.9210 H       0      r0     0.1270
   1431 H            1.2052     3.8063   -14.9309 H       0      r0     0.0548
   1432 H            1.3306     6.3247   -15.7232 H       0      r0     0.0512
   1433 H           -2.1180     5.5274   -15.0985 H       0      r0     0.1036
   1434 H           -1.2077     3.3412   -15.1105 H       0      r0     0.0471
   1435 H            0.8804     2.6193   -12.7131 H       0      r0     0.0696
   1436 H            0.1976     3.4945   -11.2745 H       0      r0     0.0750
   1437 H           -9.3283     8.3296   -14.6477 H       0      r0     0.0491
   1438 H           -7.8939     8.2028   -13.4615 H       0      r0     0.0562
   1439 C            7.8116    11.5665   -13.8722 C       6      r6     0.0589
   1440 C            6.3556    11.8692   -13.9621 C       6      r6    -0.0277
   1441 C            5.8028    12.9071   -13.2040 C       6      r6    -0.0072
   1442 C            6.6937    13.3722   -12.1468 C       6      r6     0.0029
   1443 C            8.8028    13.1964   -10.9089 C       5      r5     0.1567
   1444 O            9.9921    12.6990   -11.4667 O       5      r5    -0.4953
   1445 C            9.6087    11.4647   -12.0104 C       5      r5     0.1433
   1446 C            8.1213    11.2916   -12.3237 C       6      r6     0.0018
   1447 C            7.5978    12.5198   -11.3551 C       6      r6     0.0242
   1448 C           10.4993    10.4596   -12.2595 C       0      r0     0.0100
   1449 C            8.0409    10.3803   -14.7434 C       0      r0     0.0224
   1450 C            6.4965    14.7562   -12.1580 C       0      r0    -0.0239
   1451 C            8.8046    14.3113   -10.1051 C       0      r0     0.0240
   1452 O            8.7872    12.8490   -14.4300 O       0      r0    -0.5927
   1453 C            9.2731     7.1212   -13.4140 C       5      r5     0.1019
   1454 C           10.7287     7.1117   -13.3459 C       5      r5    -0.0246
   1455 C           11.2555     8.3023   -12.8415 C       5      r5    -0.0229
   1456 C           10.1493     9.1241   -12.7137 C       5      r5     0.1280
   1457 O            8.8519     8.6004   -12.9660 O       5      r5    -0.4971
   1458 O            6.5699    14.2372    -9.1125 O       0      r0    -0.5501
   1459 C            7.7784    14.9081    -9.3016 C       0      r0     0.1369
   1460 C            8.0839    16.1761    -8.8533 C       0      r0    -0.0358
   1461 C            7.2263    16.8692    -7.9174 C       0      r0    -0.0430
   1462 C            6.0818    16.3312    -7.3042 C       0      r0    -0.0091
   1463 O            8.3383     9.6610   -16.9490 O       0      r0    -0.4564
   1464 C            8.2883    11.5750    18.3149 C       0      r0     0.1979
   1465 C            7.6633    12.2762   -18.0674 C       0      r0    -0.0020
   1466 C            7.5062    11.8276   -16.6818 C       0      r0     0.0184
   1467 C            7.9248    10.6239   -16.2204 C       0      r0     0.1883
   1468 C            5.2617    15.3958   -12.6294 C       3      r3    -0.0139
   1469 C            4.9811    16.5316   -13.2918 C       3      r3    -0.0316
   1470 C            4.8032    17.6925   -11.5115 C       0      r0     0.0186
   1471 C            5.9639    18.6273   -11.8257 C       0      r0     0.1319
   1472 O            5.8096   -18.0165   -11.2969 O       0      r0    -0.5661
   1473 C            7.0123    18.2332   -12.4365 C       0      r0    -0.0164
   1474 C            8.5565     6.1664   -13.6285 C       0      r0    -0.0363
   1475 H            5.8349    11.3655   -14.8039 H       0      r0     0.0518
   1476 H            4.9460    13.5146   -13.5397 H       0      r0     0.0869
   1477 H            7.7504    10.3951   -11.9857 H       0      r0     0.1027
   1478 H            6.8792    12.1696   -10.6168 H       0      r0     0.1448
   1479 H           11.5302    10.7989   -12.1511 H       0      r0     0.1094
   1480 H            9.0054     9.9753   -14.3383 H       0      r0     0.1282
   1481 H            7.3633     9.4929   -14.4421 H       0      r0     0.0969
   1482 H            5.8686    14.9250    -8.8847 H       0      r0     0.2728
   1483 H            7.0979    15.3567   -11.5097 H       0      r0     0.0601
   1484 H            9.8268    14.7447    -9.9093 H       0      r0     0.0948
   1485 H           11.3108     6.2875   -13.6914 H       0      r0     0.0361
   1486 H           12.2795     8.4737   -12.6386 H       0      r0     0.0457
   1487 H            9.0451    16.5844    -9.1068 H       0      r0     0.0510
   1488 H            7.6464    17.7507    -7.5424 H       0      r0     0.0574
   1489 H            7.3601    13.3368   -18.4318 H       0      r0     0.0664
   1490 H            7.1669    12.5613   -16.0041 H       0      r0     0.0989
   1491 H            5.5139    17.1467   -14.0441 H       0      r0     0.0773
   1492 H           -1.1938    16.7104    -8.4741 H       0      r0     0.3081
   1493 H            7.1060    17.1830   -12.6281 H       0      r0     0.0332
   1494 H            7.8352    18.8698   -12.6466 H       0      r0     0.1282
   1495 H            8.9976     5.2351   -13.8462 H       0      r0     0.0175
   1496 H            7.4801     6.3270   -13.6659 H       0      r0     0.1408
   1497 C           -0.4157    15.9979   -10.0952 C       6      r6     0.1257
   1498 C           -0.7540    14.9822   -11.2292 C       6      r6    -0.0372
   1499 C           -1.4000    13.8857   -10.9862 C       6      r6    -0.0443
   1500 C           -1.5414    13.8636    -9.5293 C       6      r6     0.0043
   1501 C           -0.5302    14.2299    -7.2405 C       5      r5     0.1528
   1502 O           -0.1996    15.5325    -6.8628 O       5      r5    -0.4943
   1503 C            0.6875    15.9877    -7.8324 C       5      r5     0.1399
   1504 C            0.5804    15.1843    -9.1244 C       6      r6    -0.0001
   1505 C           -0.2124    14.0124    -8.6365 C       6      r6     0.0093
   1506 C            1.5433    17.0534    -7.7380 C       0      r0    -0.0034
   1507 C            0.3587    17.0897   -10.7639 C       0      r0     0.0119
   1508 C           -2.7619    13.4472    -9.0128 C       0      r0     0.0156
   1509 C           -1.0553    13.2803    -6.3660 C       0      r0     0.0089
   1510 O           -1.4507    16.6311    -9.4350 O       0      r0    -0.5883
   1511 C            3.9682    17.6697   -10.3366 C       5      r5     0.1465
   1512 C            4.1420    18.7770    -9.4207 C       5      r5     0.0158
   1513 C            3.2230    18.6103    -8.3701 C       5      r5    -0.0017
   1514 C            2.5957    17.4385    -8.6508 C       5      r5     0.1060
   1515 O            2.9738    16.7221    -9.9305 O       5      r5    -0.4877
   1516 O           -0.7537    11.3436    -7.9008 O       0      r0    -0.5883
   1517 C           -1.1722    11.8962    -6.6715 C       0      r0     0.1213
   1518 C           -1.6349    11.3432    -5.5307 C       0      r0    -0.0339
   1519 C           -1.8785     9.8814    -5.4407 C       0      r0    -0.0441
   1520 C           -2.1404     9.0631    -6.5288 C       0      r0    -0.0090
   1521 O            0.1527    18.4703   -12.6342 O       0      r0    -0.5020
   1522 C           -2.1392    18.7875   -14.0682 C       0      r0     0.2088
   1523 C           -2.6853    18.1223   -12.9468 C       0      r0    -0.0271
   1524 C           -1.9086    17.6857   -11.8436 C       0      r0    -0.0073
   1525 C           -0.4920    17.8723   -11.8129 C       0      r0     0.1721
   1526 C           -4.0769    13.7344    -9.5024 C       5      r5     0.1351
   1527 C           -4.2158    14.5165   -10.6434 C       5      r5    -0.0078
   1528 C           -5.5694    14.6220   -10.8592 C       5      r5    -0.0124
   1529 C           -6.3227    13.9721    -9.7585 C       5      r5     0.1224
   1530 O           -5.3639    13.3767    -8.8036 O       5      r5    -0.4457
   1531 C           -7.5398    13.8419    -9.8339 C       0      r0    -0.0429
   1532 C            4.4425    16.4377   -11.9993 C       3      r3     0.0209
   1533 H           -0.5075    15.2353   -12.2523 H       0      r0     0.0458
   1534 H           -1.8188    13.1303   -11.6818 H       0      r0     0.1039
   1535 H            1.5512    14.9172    -9.5564 H       0      r0     0.0826
   1536 H            0.1849    13.0639    -8.9053 H       0      r0     0.0858
   1537 H            1.4316    17.6211    -6.8489 H       0      r0     0.0757
   1538 H            0.8466    17.7591   -10.1068 H       0      r0     0.0795
   1539 H            1.2584    16.6906   -11.2221 H       0      r0     0.0983
   1540 H           -2.9010    13.0615    -8.0137 H       0      r0     0.1047
   1541 H           -0.5490    10.4556    -7.7032 H       0      r0     0.2656
   1542 H           -1.3096    13.5254    -5.3147 H       0      r0     0.0759
   1543 H            5.0894   -18.6097    -9.4458 H       0      r0     0.1189
   1544 H            3.0303   -18.7167    -7.5026 H       0      r0     0.0860
   1545 H           -1.8553    11.9256    -4.6423 H       0      r0     0.0852
   1546 H           -2.1331     9.5205    -4.4692 H       0      r0     0.0562
   1547 H           -3.7417    17.9979   -12.8172 H       0      r0     0.0432
   1548 H           -2.3602    17.1274   -11.0473 H       0      r0     0.1137
   1549 H           -3.4656    14.8691   -11.1835 H       0      r0     0.0567
   1550 H           -5.9323    15.0894   -11.7561 H       0      r0     0.0428
   1551 H           -8.1299    14.2370   -10.6564 H       0      r0     0.0277
   1552 H           -8.0598    13.3895    -9.0010 H       0      r0     0.0773
   1553 H            9.3246    12.9097   -13.5908 H       0      r0     0.2957
   1554 H            5.6137   -17.2783   -12.1072 H       0      r0     0.3505
   1555 C           -7.1596    13.5658     1.6243 C       0      r0     0.1392
   1556 C           -7.6385    12.6826     2.5294 C       0      r0    -0.0333
   1557 C           -8.7410    11.7457     2.6092 C       0      r0    -0.0418
   1558 C           -9.6960    11.4516     1.7047 C       0      r0     0.1196
   1559 C          -10.6488    10.4700     2.2439 C       0      r0    -0.0003
   1560 O          -10.0387    12.0119     0.5191 O       0      r0    -0.4783
   1561 O           -6.2214    14.4814     1.8267 O       0      r0    -0.4959
   1562 C          -10.9347     9.1710     1.3920 C       5      r5     0.1517
   1563 C          -10.2878     9.0647     0.1669 C       5      r5     0.0151
   1564 C          -10.9411     7.9839    -0.4517 C       5      r5    -0.0168
   1565 C          -11.7889     7.3636     0.5734 C       5      r5     0.0967
   1566 O          -11.8042     8.2734     1.8790 O       5      r5    -0.4760
   1567 C          -12.2015     6.2896     0.1632 C       0      r0    -0.0419
   1568 C           -7.5579    13.4544     0.1745 C       0      r0     0.0233
   1569 C           -4.0758    13.0204    -2.2230 C       0      r0     0.1261
   1570 C           -4.0690    12.3688    -1.0805 C       0      r0    -0.0386
   1571 C           -5.2260    12.5851    -0.2515 C       0      r0    -0.0125
   1572 C           -6.2749    13.3783    -0.7478 C       0      r0     0.2001
   1573 O           -6.3196    13.8838    -1.8157 O       0      r0    -0.4566
   1574 H           -7.1639    12.8528     3.4391 H       0      r0     0.0736
   1575 H           -8.8696    11.3249     3.6517 H       0      r0     0.1088
   1576 H          -10.5057    10.1768     3.2576 H       0      r0     0.0745
   1577 H          -11.6176    10.9939     2.3722 H       0      r0     0.0775
   1578 H           -9.4837     9.6717    -0.1405 H       0      r0     0.0941
   1579 H          -10.7776     7.6185    -1.4844 H       0      r0     0.0524
   1580 H          -11.9125     5.9012    -0.8005 H       0      r0     0.0483
   1581 H          -12.8365     5.5895     0.6975 H       0      r0     0.0631
   1582 H           -8.2051    12.6052    -0.0252 H       0      r0     0.1057
   1583 H           -8.1207    14.3139    -0.2169 H       0      r0     0.0867
   1584 H           -3.2261    11.6971    -0.8131 H       0      r0     0.0244
   1585 H           -5.3034    12.0851     0.6682 H       0      r0     0.0426
   1586 C            0.1432    -1.6455   -10.7770 C       0      r0     0.1908
   1587 C            0.9553    -0.5206   -11.2406 C       0      r0    -0.0037
   1588 C            2.3097    -0.4804   -11.4533 C       0      r0    -0.0185
   1589 C            3.2451    -1.4591   -11.1971 C       0      r0     0.1540
   1590 C            4.5303    -1.0990   -11.8564 C       0      r0    -0.0124
   1591 O            3.0346    -2.6613   -10.6934 O       0      r0    -0.4830
   1592 O           -0.8448    -1.4231   -10.1799 O       0      r0    -0.4853
   1593 C            5.7713    -1.5031   -11.0490 C       5      r5     0.1458
   1594 C            5.7491    -1.2027    -9.6865 C       5      r5    -0.0086
   1595 C            7.1019    -1.1503    -9.3351 C       5      r5    -0.0008
   1596 C            7.8770    -1.7024   -10.4372 C       5      r5     0.0999
   1597 O            6.9344    -1.8220   -11.6877 O       5      r5    -0.4872
   1598 C            9.1482    -1.9231   -10.4172 C       0      r0    -0.0445
   1599 C            0.6165    -3.1499   -11.0024 C       0      r0     0.0338
   1600 C           -2.3962    -4.9285   -14.3491 C       0      r0     0.1407
   1601 C           -1.9542    -4.8286   -13.0388 C       0      r0    -0.0229
   1602 C           -0.7772    -4.0546   -12.5831 C       0      r0    -0.0240
   1603 C           -0.5450    -3.9617   -11.2886 C       0      r0     0.1499
   1604 O           -1.2511    -4.5476   -10.2651 O       0      r0    -0.5245
   1605 H            0.4243     0.3806   -11.4193 H       0      r0     0.0642
   1606 H            2.6401     0.4528   -11.8302 H       0      r0     0.0869
   1607 H            4.5525    -1.7211   -12.7800 H       0      r0     0.0878
   1608 H            4.5029    -0.0662   -12.1658 H       0      r0     0.0467
   1609 H            4.8623    -0.9870    -9.1589 H       0      r0     0.0733
   1610 H            7.4603    -0.9072    -8.3551 H       0      r0     0.1173
   1611 H            9.6926    -1.7268    -9.5483 H       0      r0     0.0483
   1612 H            9.6893    -2.2266   -11.2736 H       0      r0     0.0521
   1613 H            1.2973    -3.1995   -11.8200 H       0      r0     0.1287
   1614 H            1.1379    -3.4791   -10.0972 H       0      r0     0.1398
   1615 H           -2.5664    -5.3679   -12.2947 H       0      r0     0.1051
   1616 H           -0.2470    -3.6207   -13.3657 H       0      r0     0.0601
   1617 C          -12.0056   -16.4630     4.8799 C       5      r5     0.1449
   1618 O          -11.1780   -17.3012     3.8999 O       5      r5    -0.4561
   1619 C          -12.3026   -17.9431     3.2997 C       5      r5     0.1463
   1620 C          -13.5738   -17.4539     3.7216 C       5      r5    -0.0123
   1621 C          -13.3419   -16.5317     4.7783 C       5      r5     0.0124
   1622 C          -11.4257   -15.5829     5.8731 C       0      r0     0.0010
   1623 C          -11.0183    18.4803     1.7613 C       5      r5     0.1468
   1624 O          -11.0861    17.4365     0.8042 O       5      r5    -0.4905
   1625 C           -9.5603    17.4763     0.4108 C       5      r5     0.1018
   1626 C           -8.8042    18.4614     1.0868 C       5      r5    -0.0348
   1627 C           -9.7386   -18.8936     1.9324 C       5      r5    -0.0112
   1628 C          -12.2130   -18.9338     2.3206 C       0      r0     0.0317
   1629 C          -12.2353   -14.8628     6.7759 C       5      r5     0.1104
   1630 C          -11.3507   -14.2343     7.6086 C       5      r5    -0.0390
   1631 C          -12.3294   -13.5314     8.4701 C       5      r5    -0.0422
   1632 C          -13.6375   -13.7902     8.0004 C       5      r5     0.1015
   1633 O          -13.6805   -14.7994     6.8445 O       5      r5    -0.4780
   1634 C          -14.4786   -13.1491     8.6782 C       0      r0    -0.0272
   1635 H          -14.5534   -17.7270     3.4075 H       0      r0     0.0485
   1636 H          -14.0978   -16.0085     5.4083 H       0      r0     0.1228
   1637 H          -10.3540   -15.5150     5.9025 H       0      r0     0.0589
   1638 H           -7.7241    18.6312     1.1348 H       0      r0     0.0733
   1639 H           -9.4966   -18.1520     2.6436 H       0      r0     0.0886
   1640 H          -13.1751    18.5383     2.1264 H       0      r0     0.0728
   1641 H          -10.2457   -14.2483     7.6501 H       0      r0     0.0905
   1642 H          -12.1014   -12.8119     9.2290 H       0      r0     0.0372
   1643 H          -14.2075   -12.5018     9.4591 H       0      r0     0.0621
   1644 H          -15.5229   -13.1834     8.3872 H       0      r0     0.0876
   1645 C           16.7363    -6.1925     5.5167 C       5      r5     0.1288
   1646 O           16.8550    -4.7931     5.6176 O       5      r5    -0.4774
   1647 C           18.2548    -4.7819     6.2486 C       5      r5     0.1054
   1648 C          -18.3939    -6.0164     6.3655 C       5      r5    -0.0374
   1649 C           17.9061    -6.9062     5.8612 C       5      r5    -0.0004
   1650 C           15.5627    -6.9124     5.0982 C       0      r0    -0.0057
   1651 C          -17.2910    -3.5528     7.7058 C       5      r5     0.1304
   1652 O          -16.7607    -2.3251     8.0598 O       5      r5    -0.4461
   1653 C          -15.4185    -2.9915     8.8555 C       5      r5     0.0935
   1654 C          -15.4779    -4.3649     8.9068 C       5      r5    -0.0372
   1655 C          -16.6208    -4.7169     8.1812 C       5      r5    -0.0374
   1656 C          -18.4296    -3.6601     6.8955 C       0      r0     0.0256
   1657 C           15.4724    -8.2744     5.3344 C       5      r5     0.0932
   1658 C           14.2435    -8.6328     4.7909 C       5      r5    -0.0509
   1659 C           14.2465   -10.0491     5.1287 C       5      r5    -0.0278
   1660 C           15.4728   -10.3735     5.8628 C       5      r5     0.1180
   1661 O           16.3836    -9.3022     6.0107 O       5      r5    -0.4873
   1662 C           15.4075   -11.6170     6.1766 C       0      r0    -0.0322
   1663 H          -17.4069    -6.1492     6.7513 H       0      r0     0.0470
   1664 H           18.0202    -7.9876     5.7433 H       0      r0     0.1292
   1665 H           14.7521    -6.3286     4.6676 H       0      r0     0.0685
   1666 H          -14.8532    -5.0137     9.4204 H       0      r0     0.0532
   1667 H          -16.9023    -5.7552     8.1800 H       0      r0     0.0412
   1668 H           18.2471    -2.7899     6.6296 H       0      r0     0.1416
   1669 H           13.6696    -7.9626     4.1816 H       0      r0     0.0383
   1670 H           13.3992   -10.6885     4.9237 H       0      r0     0.1091
   1671 H           14.4940   -12.1831     6.1444 H       0      r0     0.0685
   1672 H           16.2240   -12.1692     6.5844 H       0      r0     0.0677
   1673 C           -5.5097   -18.9045     2.1839 C       5      r5     0.1058
   1674 O           -5.4987    17.6897     1.2366 O       5      r5    -0.4465
   1675 C           -5.8433    16.8409     2.5260 C       5      r5     0.1448
   1676 C           -6.0157    17.6003     3.7859 C       5      r5    -0.0289
   1677 C           -5.7807    18.9606     3.5663 C       5      r5    -0.0099
   1678 C           -5.3449   -17.6263     1.8885 C       0      r0    -0.0363
   1679 C           -6.1257    15.6799     2.7239 C       0      r0     0.1416
   1680 H           -6.2726    17.1220     4.7413 H       0      r0     0.0567
   1681 H           -5.8033   -18.2005     4.3335 H       0      r0     0.1023
   1682 H           -5.1887   -16.6718     1.4549 H       0      r0     0.0522
   1683 H           -6.3433    15.4065     3.7740 H       0      r0     0.0953
   1684 C           -1.7252     4.5295     4.0836 C       5      r5     0.1682
   1685 O           -2.3387     4.7037     5.3315 O       5      r5    -0.4533
   1686 C           -3.4673     3.7026     5.0279 C       5      r5     0.1082
   1687 C           -3.3320     3.1740     3.6630 C       5      r5    -0.0394
   1688 C           -2.2088     3.6546     3.0310 C       5      r5    -0.0483
   1689 C           -0.5519     5.0165     3.5378 C       0      r0     0.1824
   1690 C           -4.4160     3.2633     5.8511 C       0      r0    -0.0209
   1691 H           -3.9485     2.3473     3.2366 H       0      r0     0.0366
   1692 H           -1.7509     3.4617     2.0764 H       0      r0     0.0402
   1693 H           -0.2497     4.6391     2.5166 H       0      r0     0.0984
   1694 H           -5.3151     2.8321     6.2552 H       0      r0     0.0705
   1695 C           -9.6095    -5.1432    -9.2698 C       5      r5     0.1268
   1696 O           -8.6315    -4.1048    -9.8998 O       5      r5    -0.4689
   1697 C           -7.8115    -5.1194   -10.5828 C       5      r5     0.1342
   1698 C           -8.2307    -6.4439   -10.5747 C       5      r5    -0.0356
   1699 C           -9.3287    -6.4847    -9.7597 C       5      r5    -0.0359
   1700 C          -10.6590    -4.8419    -8.4606 C       0      r0     0.0043
   1701 C           -6.6333    -4.7158   -11.2948 C       0      r0     0.0002
   1702 H           -7.8423    -7.3198   -11.0997 H       0      r0     0.0316
   1703 H           -9.9233    -7.3475    -9.4247 H       0      r0     0.0298
   1704 H          -11.5424    -5.0294    -7.8214 H       0      r0     0.1130
   1705 H           -6.0412    -5.4790   -11.7969 H       0      r0     0.0945
   1706 C           -4.7508    -3.3357    -7.7239 C       5      r5     0.1143
   1707 O           -4.0700    -4.7780    -7.9355 O       5      r5    -0.4886
   1708 C           -3.2064    -4.2827    -8.8734 C       5      r5     0.1678
   1709 C           -3.1112    -2.8102    -9.0624 C       5      r5    -0.0031
   1710 C           -4.1410    -2.1968    -8.4545 C       5      r5    -0.0354
   1711 C           -5.7488    -2.8656    -7.1036 C       0      r0    -0.0069
   1712 C           -2.2917    -4.9563    -9.4993 C       0      r0     0.1697
   1713 H           -2.3766    -2.3073    -9.6489 H       0      r0     0.1441
   1714 H           -4.4555    -1.1593    -8.3534 H       0      r0     0.0721
   1715 H           -6.6306    -2.6046    -6.5294 H       0      r0     0.0732
   1716 H           -2.1214    -6.0640    -9.4279 H       0      r0     0.1083
   1717 C            3.5328   -15.3727    -7.5724 C       5      r5     0.1244
   1718 O            3.2522   -15.4483    -9.0236 O       5      r5    -0.4723
   1719 C            4.4658   -14.8429    -9.4556 C       5      r5     0.1352
   1720 C            5.3658   -14.3417    -8.5402 C       5      r5    -0.0220
   1721 C            4.7156   -14.6991    -7.3113 C       5      r5    -0.0031
   1722 C            2.7647   -15.8942    -6.5641 C       0      r0     0.0070
   1723 C            4.8583   -14.7896   -10.8380 C       0      r0    -0.0124
   1724 H            6.3151   -13.9092    -8.6447 H       0      r0     0.0623
   1725 H            5.1903   -14.4967    -6.3559 H       0      r0     0.0683
   1726 H            3.0965   -15.7736    -5.5678 H       0      r0     0.0843
   1727 H            5.8610   -14.3515   -11.0753 H       0      r0     0.0520
   1728 C           18.5016    -5.2608    -1.0665 C       6      r6     0.0652
   1729 C           17.4710    -6.2281    -1.4741 C       6      r6    -0.0296
   1730 C           17.9842    -7.3433    -0.9960 C       6      r6    -0.0079
   1731 C          -17.8594    -7.0972    -0.4414 C       6      r6     0.1472
   1732 C          -15.5972    -6.3723    -1.6135 C       5      r5     0.1532
   1733 O          -15.4891    -4.9239    -1.6302 O       5      r5    -0.4958
   1734 C          -16.5879    -4.4745    -2.2676 C       5      r5     0.1754
   1735 C          -17.6675    -5.4864    -2.2451 C       6      r6     0.0194
   1736 C          -17.0303    -6.8493    -1.7728 C       6      r6     0.0242
   1737 C          -16.8893    -3.1580    -2.6928 C       0      r0     0.0210
   1738 C           17.9529    -3.8221    -0.8255 C       0      r0    -0.0007
   1739 C          -17.4321    -8.3415     0.5576 C       0      r0     0.0036
   1740 C          -14.5259    -7.1672    -1.6189 C       0      r0     0.0285
   1741 O          -17.8319    -5.9254     0.2614 O       5      r5    -0.4836
   1742 C           16.8183    -0.9637    -3.7423 C       0      r0     0.1267
   1743 C           18.0427    -0.7368    -4.1555 C       0      r0    -0.0215
   1744 C          -18.0016    -1.5047    -3.6095 C       0      r0    -0.0204
   1745 C          -18.0719    -2.7861    -3.3664 C       0      r0     0.1311
   1746 O           18.0745    -3.6554    -3.8338 O       0      r0    -0.4774
   1747 O          -15.7885    -9.3439    -1.6348 O       5      r5    -0.4741
   1748 C          -14.6194    -8.6030    -1.7121 C       5      r5     0.1476
   1749 C          -13.3691    -9.2561    -1.8330 C       5      r5    -0.0205
   1750 C          -13.7008   -10.5845    -1.6258 C       5      r5    -0.0159
   1751 C          -15.1402   -10.8390    -1.5148 C       5      r5     0.1103
   1752 O           16.2925    -2.6317     0.7281 O       5      r5    -0.4700
   1753 C           15.9117    -3.0185     2.2064 C       5      r5     0.1105
   1754 C           16.6197    -4.2326     2.5764 C       5      r5    -0.0161
   1755 C           17.3858    -4.5926     1.4925 C       5      r5     0.0008
   1756 C           17.1811    -3.6546     0.5420 C       5      r5     0.1548
   1757 C          -18.6111    -8.7391     1.4719 C       5      r5     0.1382
   1758 C           18.1337   -10.0032     1.1779 C       5      r5    -0.0224
   1759 C           16.9493   -10.0435     1.7572 C       5      r5    -0.0313
   1760 C           16.6778    -8.7155     2.3947 C       5      r5     0.0758
   1761 O           18.0241    -7.8386     2.2394 O       5      r5    -0.4638
   1762 C           15.1371    -2.3265     2.9621 C       0      r0    -0.0065
   1763 C          -15.6069   -11.9560    -1.4196 C       0      r0    -0.0134
   1764 H           16.5473    -6.0992    -1.9656 H       0      r0     0.0677
   1765 H           17.4518    -8.3030    -1.0734 H       0      r0     0.0916
   1766 H          -18.2488    -5.4757    -3.1920 H       0      r0     0.0927
   1767 H          -16.9878    -7.6576    -2.4525 H       0      r0     0.0940
   1768 H          -16.1428    -2.3685    -2.4852 H       0      r0     0.0847
   1769 H          -18.4952    -3.0695    -0.8921 H       0      r0     0.1143
   1770 H           17.3394    -3.5177    -1.6460 H       0      r0     0.0876
   1771 H          -17.1306    -9.1836    -0.0265 H       0      r0     0.0840
   1772 H          -16.5687    -8.0691     1.1455 H       0      r0     0.1027
   1773 H          -13.5448    -6.5973    -1.5594 H       0      r0     0.1384
   1774 H           18.3501     0.0132    -4.8330 H       0      r0     0.0441
   1775 H          -17.1234    -0.9125    -3.4067 H       0      r0     0.0543
   1776 H          -12.3920    -8.8259    -1.9761 H       0      r0     0.0447
   1777 H          -13.0014   -11.3900    -1.6289 H       0      r0     0.0472
   1778 H           16.5992    -4.6274     3.5315 H       0      r0     0.0994
   1779 H           18.1395    -5.3948     1.4556 H       0      r0     0.1422
   1780 H           18.5551   -10.7890     0.5871 H       0      r0     0.1079
   1781 H           16.2631   -10.8456     1.6855 H       0      r0     0.0691
   1782 H           14.9603    -2.6861     3.9552 H       0      r0     0.0965
   1783 H           14.6949    -1.3823     2.7155 H       0      r0     0.0786
   1784 H          -14.9823   -12.8337    -1.3370 H       0      r0     0.0462
   1785 H          -16.6595   -12.1574    -1.3319 H       0      r0     0.1002
   1786 C           13.3280   -11.4916    -0.5352 C       6      r6     0.0764
   1787 C           13.9536   -12.7667    -0.1208 C       6      r6    -0.0322
   1788 C           12.9516   -13.5793    -0.3424 C       6      r6    -0.0335
   1789 C           11.6686   -12.8000    -0.8074 C       6      r6     0.1188
   1790 C            9.9941   -11.4262     0.3794 C       5      r5     0.1670
   1791 O           10.0850   -10.1208     0.1066 O       5      r5    -0.4816
   1792 C           11.5084    -9.8302     0.3793 C       5      r5     0.1317
   1793 C           12.3501   -11.0712     0.6490 C       6      r6    -0.0025
   1794 C           11.2939   -12.1660     0.5056 C       6      r6     0.0264
   1795 C           12.0296    -8.5961     0.5580 C       0      r0     0.0064
   1796 C           14.4300   -10.4006    -0.8264 C       0      r0    -0.0159
   1797 C           10.4425   -13.8344    -1.2268 C       0      r0    -0.0261
   1798 C            8.8050   -12.1011     0.6401 C       0      r0    -0.0028
   1799 O           12.0816   -11.7454    -1.6455 O       5      r5    -0.4848
   1800 C           15.0599    -6.8192     1.2440 C       0      r0     0.1174
   1801 C           15.3277    -8.1120     1.7829 C       0      r0    -0.0058
   1802 C           14.1788    -8.9255     1.5589 C       0      r0    -0.0503
   1803 C           13.2946    -8.1331     0.9857 C       0      r0     0.0775
   1804 O           13.5694    -6.5148     0.6386 O       0      r0    -0.4479
   1805 O            9.8600   -14.1021     1.7060 O       5      r5    -0.4914
   1806 C            8.7769   -13.4568     1.0787 C       5      r5     0.1044
   1807 C            7.5675   -14.1325     1.0387 C       5      r5    -0.0356
   1808 C            7.6361   -15.4117     1.6800 C       5      r5    -0.0309
   1809 C            9.0070   -15.3438     2.0840 C       5      r5     0.1150
   1810 O           15.9978    -9.6025    -2.6249 O       5      r5    -0.4501
   1811 C           16.3697   -10.2406    -4.1335 C       5      r5     0.0813
   1812 C           15.4626   -11.3838    -4.1972 C       5      r5    -0.0408
   1813 C           14.6957   -11.5211    -3.0429 C       5      r5    -0.0135
   1814 C           15.0688   -10.5094    -2.2217 C       5      r5     0.1521
   1815 C           10.8386   -14.8192    -2.3333 C       0      r0     0.1347
   1816 C           11.4311   -14.2083    -3.3786 C       0      r0    -0.0149
   1817 C           11.8003   -14.8185    -4.6239 C       0      r0    -0.0276
   1818 C           11.4679   -16.1243    -4.9519 C       0      r0     0.0246
   1819 O           10.4849   -16.1599    -2.2350 O       0      r0    -0.4983
   1820 C           17.1241    -9.9008    -5.0186 C       0      r0    -0.0344
   1821 C            9.2970   -16.4197     2.7228 C       0      r0    -0.0187
   1822 H           14.9656   -12.9766     0.2372 H       0      r0     0.0776
   1823 H           12.9985   -14.5904    -0.1134 H       0      r0     0.0450
   1824 H           12.8091   -11.0688     1.6065 H       0      r0     0.0379
   1825 H           11.3581   -12.9680     1.2346 H       0      r0     0.0977
   1826 H           11.2161    -7.9226     0.2121 H       0      r0     0.1185
   1827 H           14.0142    -9.3446    -0.8801 H       0      r0     0.0859
   1828 H           15.1991   -10.2822    -0.0024 H       0      r0     0.0497
   1829 H           10.1203   -14.3928    -0.3000 H       0      r0     0.0999
   1830 H            9.6285   -13.2020    -1.5570 H       0      r0     0.0510
   1831 H            7.8277   -11.6681     0.3981 H       0      r0     0.0794
   1832 H           16.3007    -8.9166     3.4225 H       0      r0     0.0788
   1833 H           14.0743    -9.9512     1.8057 H       0      r0     0.0339
   1834 H            6.6860   -13.7251     0.5243 H       0      r0     0.0719
   1835 H            6.9153   -16.2234     1.8198 H       0      r0     0.0518
   1836 H           15.4222   -11.9540    -5.0949 H       0      r0     0.0273
   1837 H           13.9365   -12.2729    -2.8250 H       0      r0     0.0721
   1838 H           11.5397   -13.1455    -3.1296 H       0      r0     0.0807
   1839 H           12.3738   -14.1909    -5.3006 H       0      r0     0.0489
   1840 H           17.0887   -10.5123    -5.9093 H       0      r0     0.0526
   1841 H           17.7753    -9.0806    -4.9773 H       0      r0     0.0785
   1842 H            8.6167   -17.2407     2.8548 H       0      r0     0.0572
   1843 H           10.2637   -16.6195     3.1746 H       0      r0     0.1219
   1844 C          -16.5493    -3.4098     3.0805 C       6      r6     0.1249
   1845 C          -17.5332    -4.4973     3.4543 C       6      r6    -0.0129
   1846 C          -17.1471    -5.7578     3.3940 C       6      r6    -0.0141
   1847 C          -15.7398    -5.8712     2.9975 C       6      r6     0.0074
   1848 C          -13.9263    -4.8722     1.5717 C       5      r5     0.1553
   1849 O          -13.6947    -3.5257     1.4049 O       5      r5    -0.5096
   1850 C          -14.9572    -2.9918     1.0655 C       5      r5     0.1513
   1851 C          -16.0993    -3.8321     1.5823 C       6      r6     0.0188
   1852 C          -15.3518    -5.2302     1.7200 C       6      r6     0.0224
   1853 C          -15.1477    -1.8644     0.3259 C       0      r0     0.0093
   1854 C          -17.3038    -2.0687     2.9925 C       0      r0     0.0148
   1855 C          -14.8415    -6.4231     3.8952 C       0      r0     0.0044
   1856 C          -12.8932    -5.8044     1.6579 C       0      r0     0.0261
   1857 O          -15.4133    -3.2468     3.8835 O       0      r0    -0.5679
   1858 C          -18.3574    -0.4969    -0.5017 C       5      r5     0.0821
   1859 C          -17.5528     0.5058    -1.1056 C       5      r5    -0.0437
   1860 C          -16.2871    -0.0173    -0.7577 C       5      r5    -0.0186
   1861 C          -16.3993    -1.2510    -0.0465 C       5      r5     0.1302
   1862 O          -17.5915    -1.7425     0.2874 O       5      r5    -0.5062
   1863 O          -14.1769    -7.9749     1.5970 O       0      r0    -0.5715
   1864 C          -12.9980    -7.2795     1.6757 C       0      r0     0.1456
   1865 C          -11.7065    -7.6679     1.7440 C       0      r0    -0.0174
   1866 C          -11.2274    -9.0741     1.6374 C       0      r0    -0.0414
   1867 C          -12.0346   -10.1776     1.6050 C       0      r0    -0.0157
   1868 O          -18.3321    -0.9429     4.8679 O       0      r0    -0.4855
   1869 C          -14.3070     0.8580     5.7951 C       0      r0     0.2280
   1870 C          -15.6328     0.1401     5.5143 C       0      r0     0.0251
   1871 C          -15.9946    -0.6391     4.3686 C       0      r0     0.0126
   1872 C          -17.2535    -1.1615     4.1817 C       0      r0     0.1859
   1873 C          -15.1898    -6.7022     5.2534 C       3      r3    -0.0108
   1874 C          -14.6846    -6.4750     6.5089 C       3      r3    -0.0412
   1875 C          -13.3978    -8.1937     6.6006 C       0      r0     0.0200
   1876 C          -12.5073    -7.6585     7.7654 C       0      r0     0.1305
   1877 O          -11.1691    -7.3040     7.5909 O       0      r0    -0.5795
   1878 C          -13.0409    -7.6057     8.8702 C       0      r0     0.0034
   1879 C           17.7077    -0.2254    -0.6706 C       0      r0    -0.0460
   1880 H          -18.5281    -4.2569     3.6976 H       0      r0     0.0706
   1881 H          -17.7376    -6.5646     3.7271 H       0      r0     0.0931
   1882 H          -17.0022    -3.7644     0.9831 H       0      r0     0.1111
   1883 H          -15.6496    -5.9977     0.9930 H       0      r0     0.1269
   1884 H          -14.2628    -1.3924     0.0391 H       0      r0     0.0707
   1885 H          -16.9178    -1.5772     2.1031 H       0      r0     0.0869
   1886 H          -18.3243    -2.2257     2.6724 H       0      r0     0.0860
   1887 H          -13.8866    -8.8525     1.2263 H       0      r0     0.2673
   1888 H          -13.7809    -6.4930     3.5812 H       0      r0     0.0868
   1889 H          -11.9460    -5.2972     1.5259 H       0      r0     0.0944
   1890 H          -17.7945     1.4307    -1.6283 H       0      r0     0.0396
   1891 H          -15.3391     0.4918    -1.0107 H       0      r0     0.0908
   1892 H          -10.9246    -6.9531     1.8527 H       0      r0     0.0683
   1893 H          -10.1385    -9.2248     1.6245 H       0      r0     0.0593
   1894 H          -16.3616     0.2335     6.3286 H       0      r0     0.1214
   1895 H          -15.2536    -0.7914     3.6609 H       0      r0     0.0645
   1896 H          -14.2727    -5.6837     7.1307 H       0      r0     0.0503
   1897 H          -17.0789   -13.9549     5.2485 H       0      r0     0.3086
   1898 H          -14.0765    -7.9946     9.0405 H       0      r0     0.1230
   1899 H          -12.6444    -7.3334     9.8083 H       0      r0     0.1293
   1900 H           17.5270     0.6975    -1.2476 H       0      r0     0.0257
   1901 H           16.8726    -0.8506    -0.2701 H       0      r0     0.1093
   1902 C          -17.3823   -11.9440     5.4405 C       6      r6     0.1142
   1903 C           18.5852   -11.2736     5.0736 C       6      r6    -0.0071
   1904 C           17.7982   -11.6579     4.0745 C       6      r6    -0.0256
   1905 C           18.5089   -12.6048     3.3171 C       6      r6    -0.0193
   1906 C          -16.6818   -13.7157     2.5857 C       5      r5     0.1330
   1907 O          -15.8148   -14.1596     3.5647 O       5      r5    -0.5195
   1908 C          -15.3601   -12.9280     4.1677 C       5      r5     0.1432
   1909 C          -16.4242   -11.8794     4.1923 C       6      r6     0.0052
   1910 C          -17.3302   -12.4837     2.9767 C       6      r6    -0.0063
   1911 C          -14.1001   -12.6941     4.6931 C       0      r0     0.0163
   1912 C          -16.7671   -11.0888     6.5302 C       0      r0     0.0093
   1913 C           17.7249   -13.5644     2.3784 C       0      r0    -0.0163
   1914 C          -16.8855   -14.3552     1.3707 C       0      r0     0.0019
   1915 O          -17.4739   -13.3575     5.9552 O       0      r0    -0.5527
   1916 C          -13.3461    -9.4885     6.0932 C       5      r5     0.1344
   1917 C          -12.1480   -10.2712     6.3628 C       5      r5    -0.0181
   1918 C          -12.2346   -11.5155     5.7750 C       5      r5    -0.0325
   1919 C          -13.5580   -11.5088     5.2423 C       5      r5     0.1235
   1920 O          -14.2967   -10.2657     5.2200 O       5      r5    -0.4840
   1921 O          -18.2224   -12.6277     0.1125 O       5      r5    -0.5077
   1922 C          -17.5910   -13.8491     0.2168 C       5      r5     0.1203
   1923 C          -17.5905   -14.7055    -0.8631 C       5      r5    -0.0298
   1924 C          -18.2706   -14.1290    -1.9595 C       5      r5    -0.0242
   1925 C           18.5935   -12.8974    -1.4170 C       5      r5     0.0985
   1926 O          -17.9336    -9.0470     7.4606 O       0      r0    -0.4917
   1927 C           16.8885   -11.8234     9.6335 C       0      r0     0.1355
   1928 C           17.7617   -10.9208     9.0437 C       0      r0    -0.0029
   1929 C          -18.4236   -11.2869     8.1346 C       0      r0     0.0105
   1930 C          -17.7197   -10.4331     7.4243 C       0      r0     0.1477
   1931 C           16.2622   -13.8850     2.8793 C       5      r5     0.1501
   1932 C           16.0117   -15.1435     3.4187 C       5      r5    -0.0156
   1933 C           14.6499   -15.3512     3.7085 C       5      r5    -0.0360
   1934 C           14.1333   -14.0888     3.2711 C       5      r5     0.0836
   1935 O           15.3172   -13.0228     2.6555 O       5      r5    -0.4755
   1936 C           12.8874   -14.0738     3.4577 C       0      r0    -0.0100
   1937 C          -14.7118    -7.8261     6.1531 C       3      r3     0.0229
   1938 H           18.1235   -10.6696     5.8456 H       0      r0     0.1147
   1939 H           16.7733   -11.4043     4.0010 H       0      r0     0.0844
   1940 H          -16.0228   -10.8626     4.0980 H       0      r0     0.0896
   1941 H          -17.3630   -11.7543     2.1750 H       0      r0     0.0687
   1942 H          -13.5187   -13.6289     4.5566 H       0      r0     0.0841
   1943 H          -16.1800   -11.7917     7.1778 H       0      r0     0.0779
   1944 H          -15.9644   -10.3762     6.2266 H       0      r0     0.1251
   1945 H           17.6423   -13.2441     1.3241 H       0      r0     0.1149
   1946 H           18.2936   -14.5096     2.1931 H       0      r0     0.1029
   1947 H          -16.3950   -15.2783     1.1219 H       0      r0     0.0587
   1948 H          -11.2894    -9.9292     6.9117 H       0      r0     0.0611
   1949 H          -11.5534   -12.3054     5.6435 H       0      r0     0.0412
   1950 H          -17.2238   -15.7084    -0.9025 H       0      r0     0.0480
   1951 H           18.6363   -14.6289    -2.8408 H       0      r0     0.1152
   1952 H           17.7443    -9.8608     9.3023 H       0      r0     0.0790
   1953 H          -18.1838   -12.3454     7.9593 H       0      r0     0.1041
   1954 H           16.7769   -15.9346     3.5236 H       0      r0     0.0681
   1955 H           14.1195   -16.2142     4.0474 H       0      r0     0.0715
   1956 H           12.2504   -14.9358     3.8786 H       0      r0     0.1396
   1957 H           12.3447   -13.1350     3.2401 H       0      r0     0.0921
   1958 H          -14.6319    -3.4838     3.3006 H       0      r0     0.2929
   1959 H          -10.8710    -6.4914     8.0456 H       0      r0     0.3103
   1960 C            7.6034   -16.3932     6.6310 C       0      r0     0.1849
   1961 C            8.5495   -17.2204     5.8242 C       0      r0    -0.0079
   1962 C            8.3302   -18.3274     5.0572 C       0      r0    -0.0138
   1963 C            7.1204    18.8669     5.1281 C       0      r0     0.1624
   1964 C            6.8839    17.7650     4.1672 C       0      r0     0.0052
   1965 O            6.2398   -18.8565     6.0243 O       0      r0    -0.4765
   1966 O            7.9327   -15.8434     7.6183 O       0      r0    -0.4795
   1967 C            7.9553    17.4895     3.0704 C       5      r5     0.1339
   1968 C            7.4891    17.2017     1.8005 C       5      r5     0.0058
   1969 C            8.6227    16.9596     1.0552 C       5      r5    -0.0009
   1970 C            9.7991    17.1610     1.9039 C       5      r5     0.0967
   1971 O            9.2614    17.4743     3.4113 O       5      r5    -0.4816
   1972 C           10.9850    17.0683     1.4263 C       0      r0    -0.0475
   1973 C            6.1699   -16.0862     6.1327 C       0      r0     0.0154
   1974 C            5.3278   -11.7245     6.8010 C       0      r0     0.1261
   1975 C            6.5161   -12.2276     6.2794 C       0      r0    -0.0340
   1976 C            6.8442   -13.6178     6.2566 C       0      r0    -0.0197
   1977 C            5.8013   -14.5821     6.5047 C       0      r0     0.1850
   1978 O            4.6844   -14.4295     6.8041 O       0      r0    -0.4910
   1979 H            9.5170   -16.6970     5.6394 H       0      r0     0.0694
   1980 H            9.0943   -18.7207     4.4027 H       0      r0     0.1048
   1981 H            6.7742    17.0273     5.0026 H       0      r0     0.1106
   1982 H            5.9113    17.8138     3.6494 H       0      r0     0.0695
   1983 H            6.4750    17.1650     1.4795 H       0      r0     0.1017
   1984 H            8.5724    16.7460     0.0186 H       0      r0     0.1023
   1985 H           11.2359    16.7790     0.4324 H       0      r0     0.0282
   1986 H           11.7434    17.4016     2.0793 H       0      r0     0.0647
   1987 H            5.9122   -16.3558     5.1662 H       0      r0     0.0428
   1988 H            5.4692   -16.8579     6.6035 H       0      r0     0.1202
   1989 H            7.1791   -11.4802     5.9470 H       0      r0     0.0500
   1990 H            7.7954   -13.9742     5.9662 H       0      r0     0.0520
   1991 C           10.2358   -18.8587   -14.7150 C       0      r0     0.1963
   1992 C           11.5637    18.3755   -14.7526 C       0      r0    -0.0199
   1993 C           12.5253    18.6113   -15.6129 C       0      r0    -0.0384
   1994 C           12.5346   -18.1759   -16.5493 C       0      r0     0.1588
   1995 C           13.9216   -17.7399   -17.1723 C       0      r0     0.0008
   1996 O           11.6291   -17.5048   -16.8462 O       0      r0    -0.4790
   1997 O            9.5031   -18.6392   -13.8443 O       0      r0    -0.4751
   1998 C           14.5407   -16.6889   -16.3572 C       5      r5     0.1403
   1999 C           13.7700   -16.2508   -15.2551 C       5      r5    -0.0118
   2000 C           14.6852   -15.4114   -14.6454 C       5      r5    -0.0210
   2001 C           15.9242   -15.3275   -15.4402 C       5      r5     0.0902
   2002 O           15.7946   -16.3318   -16.6938 O       5      r5    -0.4912
   2003 C           16.8882   -14.6090   -15.2627 C       0      r0    -0.0311
   2004 C            9.5841   -18.8315   -16.1355 C       0      r0     0.0393
   2005 C            6.4929    15.8032   -16.3815 C       0      r0     0.1288
   2006 C            7.7520    15.7480   -15.9166 C       0      r0    -0.0255
   2007 C            8.6519    16.9628   -15.8464 C       0      r0    -0.0218
   2008 C            8.4019    18.1774   -16.2618 C       0      r0     0.1652
   2009 O            7.3099    18.7154   -16.7902 O       0      r0    -0.4648
   2010 H           11.6223    17.5937   -14.0631 H       0      r0     0.0835
   2011 H           13.4122    18.0120   -15.6342 H       0      r0     0.0479
   2012 H           14.6136   -18.5284   -17.3930 H       0      r0     0.0854
   2013 H           13.8425   -17.4071   -18.2324 H       0      r0     0.0720
   2014 H           12.7773   -16.5526   -14.9205 H       0      r0     0.0845
   2015 H           14.4477   -14.8462   -13.7311 H       0      r0     0.0655
   2016 H           16.9389   -13.9344   -14.4243 H       0      r0     0.0438
   2017 H           17.8185   -14.6919   -15.8178 H       0      r0     0.0701
   2018 H            9.3304   -17.7818   -16.3568 H       0      r0     0.1348
   2019 H           10.2379    18.9215   -17.0089 H       0      r0     0.0802
   2020 H            8.2282    14.8185   -15.4326 H       0      r0     0.0860
   2021 H            9.6197    16.9238   -15.4072 H       0      r0     0.0384
   2022 C            8.5267   -14.8711    -8.0757 C       5      r5     0.1545
   2023 O            9.3061   -14.1023    -8.9852 O       5      r5    -0.4654
   2024 C            9.0140   -14.9285   -10.1923 C       5      r5     0.1211
   2025 C            8.2271   -16.0537   -10.0329 C       5      r5    -0.0196
   2026 C            7.9453   -16.0163    -8.6355 C       5      r5     0.0137
   2027 C            8.4196   -14.4605    -6.7483 C       0      r0     0.0167
   2028 C            9.0189   -14.6974   -12.7498 C       5      r5     0.1239
   2029 O            9.5922   -14.1121   -13.8475 O       5      r5    -0.4833
   2030 C            8.6984   -14.9187   -14.9150 C       5      r5     0.1245
   2031 C            7.7639   -15.8264   -14.3212 C       5      r5     0.0285
   2032 C            7.8985   -15.5732   -12.9752 C       5      r5    -0.0010
   2033 C            9.4375   -14.3896   -11.4517 C       0      r0     0.0042
   2034 C            7.5612   -15.1137    -5.8069 C       5      r5     0.1342
   2035 C            7.4982   -14.4834    -4.5817 C       5      r5    -0.0233
   2036 C            6.6173   -15.1345    -3.6659 C       5      r5    -0.0304
   2037 C            6.1930   -16.1827    -4.5307 C       5      r5     0.1128
   2038 O            6.8150   -16.2550    -5.9473 O       5      r5    -0.4598
   2039 C            5.3415   -16.8996    -3.8562 C       0      r0    -0.0277
   2040 H            7.8456   -16.7000   -10.7727 H       0      r0     0.0689
   2041 H            7.4404   -16.8116    -8.1559 H       0      r0     0.1025
   2042 H            9.0152   -13.6118    -6.4532 H       0      r0     0.0931
   2043 H            7.1161   -16.4706   -14.7846 H       0      r0     0.1348
   2044 H            7.2575   -16.0031   -12.1890 H       0      r0     0.0699
   2045 H           10.1126   -13.5977   -11.2879 H       0      r0     0.0798
   2046 H            8.0023   -13.5624    -4.3117 H       0      r0     0.0495
   2047 H            6.3406   -14.8006    -2.6988 H       0      r0     0.0566
   2048 H            5.0805   -16.6277    -2.8139 H       0      r0     0.0474
   2049 H            4.7753   -17.6621    -4.2952 H       0      r0     0.0944
   2050 C            2.5063    -7.4103     2.5288 C       5      r5     0.1142
   2051 O            2.9277    -6.0022     2.3193 O       5      r5    -0.4712
   2052 C            4.1830    -6.3197     1.7017 C       5      r5     0.1174
   2053 C            4.4149    -7.7247     1.5676 C       5      r5    -0.0228
   2054 C            3.3549    -8.4394     2.1433 C       5      r5    -0.0254
   2055 C            1.2547    -7.6555     3.0952 C       0      r0     0.0079
   2056 C            6.3868    -5.6485     0.9992 C       0      r0     0.1321
   2057 O            7.0043    -4.8867    -0.0006 O       0      r0    -0.5697
   2058 C            9.2543    -6.2965     0.5051 C       0      r0     0.1927
   2059 C            8.3922    -7.0741     1.2829 C       0      r0     0.0035
   2060 C            7.0011    -6.6868     1.5831 C       0      r0    -0.0019
   2061 C            4.9740    -5.3256     1.1744 C       0      r0     0.0066
   2062 C            0.5886    -8.9089     3.3023 C       5      r5     0.1028
   2063 C           -0.6211    -8.9108     3.9607 C       5      r5    -0.0135
   2064 C           -0.9506   -10.3024     3.9345 C       5      r5    -0.0196
   2065 C            0.1315   -11.0207     3.2997 C       5      r5     0.1061
   2066 O            1.1801   -10.1407     2.7878 O       5      r5    -0.4952
   2067 C           -0.1680   -12.2574     3.3723 C       0      r0    -0.0273
   2068 H            5.3052    -8.1821     1.0650 H       0      r0     0.1083
   2069 H            3.2079    -9.5167     2.3104 H       0      r0     0.0843
   2070 H            0.6712    -6.8222     3.4903 H       0      r0     0.1223
   2071 H            8.7988    -8.0321     1.6738 H       0      r0     0.0912
   2072 H            6.5158    -7.3641     2.2669 H       0      r0     0.0771
   2073 H            4.5910    -4.3210     0.9769 H       0      r0     0.0667
   2074 H           -1.1517    -8.0923     4.3131 H       0      r0     0.1148
   2075 H           -1.8341   -10.7579     4.2834 H       0      r0     0.0592
   2076 H           -1.1590   -12.5640     3.6652 H       0      r0     0.0752
   2077 H            0.4975   -13.0816     3.0415 H       0      r0     0.1212
   2078 C           14.0217    12.5510    -6.7288 C       5      r5     0.1089
   2079 O           15.4614    12.0416    -7.1086 O       5      r5    -0.4735
   2080 C           15.2916    10.7706    -6.4927 C       5      r5     0.1378
   2081 C           14.1772    10.4562    -5.7604 C       5      r5     0.0160
   2082 C           13.3312    11.5448    -5.9426 C       5      r5    -0.0072
   2083 C           13.4663    13.6660    -7.1803 C       0      r0    -0.0099
   2084 C           16.3201     9.7833    -6.8350 C       0      r0     0.0212
   2085 H           13.8838     9.5708    -5.2235 H       0      r0     0.1432
   2086 H           12.3513    11.5803    -5.5062 H       0      r0     0.0745
   2087 H           12.7409    14.4595    -7.3998 H       0      r0     0.0985
   2088 H           17.0973    10.0931    -7.5810 H       0      r0     0.1125
   2089 C            6.7265   -17.8962    18.5404 C       5      r5     0.1187
   2090 O            6.7492   -16.3674   -18.2160 O       5      r5    -0.4331
   2091 C            6.4296   -15.6051    18.1119 C       5      r5     0.1459
   2092 C            6.0999   -16.2579    16.9101 C       5      r5    -0.0275
   2093 C            6.3448   -17.5586    17.1420 C       5      r5    -0.0349
   2094 C            6.9339   -18.8880   -18.2244 C       0      r0     0.1388
   2095 C            6.1372   -14.1839    18.1257 C       0      r0    -0.0083
   2096 H            5.6484   -15.8415    16.0420 H       0      r0     0.0414
   2097 H            6.2483   -18.3251    16.3934 H       0      r0     0.0363
   2098 H            6.8215    18.0094   -18.6511 H       0      r0     0.0746
   2099 H            5.8202   -13.6408    17.2507 H       0      r0     0.0682
   2100 C            5.1036    14.8987   -18.4579 C       0      r0     0.0951
   2101 O            5.4970    14.5725   -16.8320 O       0      r0    -0.4567
   2102 C            3.8619    14.2708   -16.5957 C       0      r0     0.1126
   2103 C            2.9493    14.3712   -17.7452 C       0      r0    -0.0095
   2104 C            3.7034    14.8091    18.5400 C       0      r0    -0.0206
   2105 C            5.9916    15.3451    18.0898 C       0      r0    -0.0339
   2106 C            3.2558    14.0299   -15.4917 C       0      r0    -0.0092
   2107 H            1.8792    14.0703   -17.7638 H       0      r0     0.1169
   2108 H            3.3174    15.0824    17.5699 H       0      r0     0.0555
   2109 H            6.4791    15.7252    17.2753 H       0      r0     0.0349
   2110 H            2.5687    13.8602   -14.7150 H       0      r0     0.0573
   2111 C            0.1255    -3.1632    -4.8448 C       6      r6     0.0560
   2112 C           -0.9435    -3.8889    -4.1128 C       6      r6    -0.0292
   2113 C           -0.4888    -5.1104    -4.2351 C       6      r6     0.0062
   2114 C            0.5920    -5.3479    -5.1853 C       6      r6     0.1279
   2115 C            0.8660    -4.9673    -7.7812 C       5      r5     0.1715
   2116 O            1.6255    -3.8353    -7.9107 O       5      r5    -0.4775
   2117 C            0.8061    -2.7967    -7.3425 C       5      r5     0.1484
   2118 C           -0.2633    -3.3247    -6.3911 C       6      r6    -0.0040
   2119 C            0.0058    -5.0127    -6.5320 C       6      r6     0.0309
   2120 C            1.0313    -1.5595    -7.6197 C       0      r0     0.0470
   2121 C            0.2276    -1.7922    -4.2766 C       0      r0    -0.0173
   2122 C            1.0788    -6.7251    -4.9879 C       0      r0     0.0315
   2123 C            0.8179    -5.9789    -8.7015 C       0      r0     0.0258
   2124 O            1.5831    -4.1822    -4.8823 O       5      r5    -0.5062
   2125 C           -1.8058     1.3436    -5.5982 C       0      r0     0.1800
   2126 C           -2.1826     0.2773    -6.4732 C       0      r0    -0.0060
   2127 C           -1.2759    -0.6263    -7.0912 C       0      r0    -0.0030
   2128 C            0.1086    -0.5094    -7.1095 C       0      r0     0.1752
   2129 O            0.5823     0.5276    -6.6976 O       0      r0    -0.4479
   2130 O           -0.4113    -7.6445    -7.3167 O       5      r5    -0.4700
   2131 C            0.1906    -7.2245    -8.4902 C       5      r5     0.1433
   2132 C            0.1567    -8.0614    -9.6317 C       5      r5    -0.0164
   2133 C           -0.3177    -9.3587    -9.3068 C       5      r5    -0.0185
   2134 C           -0.6754    -9.1204    -7.9537 C       5      r5     0.1141
   2135 O            0.4686    -0.7287    -1.9348 O       5      r5    -0.4696
   2136 C            1.2874    -1.3308    -0.7132 C       5      r5     0.1072
   2137 C            1.8340    -2.6315    -1.0770 C       5      r5    -0.0335
   2138 C            1.4347    -2.8787    -2.3877 C       5      r5    -0.0086
   2139 C            0.6988    -1.7954    -2.7710 C       5      r5     0.1437
   2140 C            1.6382    -6.9648    -3.7344 C       5      r5     0.1560
   2141 C            1.3581    -8.3217    -3.5739 C       5      r5    -0.0280
   2142 C            1.5202    -8.4682    -2.1985 C       5      r5    -0.0426
   2143 C            1.8054    -7.1796    -1.5104 C       5      r5     0.0751
   2144 O            2.0432    -6.1285    -2.6639 O       5      r5    -0.4834
   2145 C            1.3851    -0.8855     0.4666 C       0      r0    -0.0142
   2146 C           -1.1791   -10.1853    -7.4813 C       0      r0    -0.0367
   2147 H           -1.7601    -3.5132    -3.5455 H       0      r0     0.1039
   2148 H           -1.0501    -5.8856    -3.7109 H       0      r0     0.1053
   2149 H           -1.3049    -3.0465    -6.5293 H       0      r0     0.0357
   2150 H           -0.8080    -5.6670    -6.7020 H       0      r0     0.0988
   2151 H            1.6680    -1.2898    -8.3675 H       0      r0     0.1081
   2152 H            0.6794    -1.0440    -4.9538 H       0      r0     0.1017
   2153 H           -0.7607    -1.3444    -4.2446 H       0      r0     0.0639
   2154 H            0.6929    -7.5170    -5.6245 H       0      r0     0.1152
   2155 H            2.8304    -5.0624    -5.4919 H       0      r0     0.3528
   2156 H            1.3509    -5.7967    -9.5843 H       0      r0     0.0616
   2157 H           -3.2769     0.1309    -6.4144 H       0      r0     0.0659
   2158 H           -1.7606    -1.3761    -7.7024 H       0      r0     0.0555
   2159 H            0.5456    -7.8278   -10.6329 H       0      r0     0.0465
   2160 H           -0.3612   -10.1499    -9.9788 H       0      r0     0.0665
   2161 H            2.3493    -3.3067    -0.4234 H       0      r0     0.0450
   2162 H            1.6478    -3.7525    -3.1226 H       0      r0     0.1474
   2163 H            1.1657    -9.0614    -4.4385 H       0      r0     0.0434
   2164 H            1.3691    -9.4293    -1.7261 H       0      r0     0.0266
   2165 H            1.9830    -1.3729     1.1982 H       0      r0     0.0497
   2166 H            0.8825     0.0509     0.7471 H       0      r0     0.0842
   2167 H           -1.3535   -11.0739    -8.0153 H       0      r0     0.0364
   2168 H           -1.5980   -10.2990    -6.5255 H       0      r0     0.0611
   2169 C           -2.1570    -9.9062    -1.1621 C       6      r6     0.0540
   2170 C           -1.2615   -10.9663    -1.6827 C       6      r6    -0.0564
   2171 C           -1.9168   -12.0359    -1.3095 C       6      r6    -0.0150
   2172 C           -3.1223   -11.6721    -0.4303 C       6      r6     0.1276
   2173 C           -3.2744   -10.7675     2.0465 C       5      r5     0.1764
   2174 O           -3.5149    -9.4951     2.1776 O       5      r5    -0.4626
   2175 C           -2.5549    -8.8401     1.2104 C       5      r5     0.1222
   2176 C           -1.7900    -9.8309     0.3737 C       6      r6    -0.0130
   2177 C           -2.4084   -11.1699     0.8577 C       6      r6     0.0291
   2178 C           -2.4114    -7.5260     1.0050 C       0      r0     0.0087
   2179 C           -1.9052    -8.5816    -2.0619 C       0      r0    -0.0367
   2180 C           -4.0697   -12.9933    -0.1797 C       0      r0    -0.0101
   2181 C           -3.7733   -11.7930     2.8725 C       0      r0     0.0149
   2182 O           -3.7399   -10.5067    -0.9833 O       5      r5    -0.4923
   2183 C           -0.3057    -5.6209    -1.1810 C       5      r5     0.1531
   2184 C            0.4548    -6.8104    -0.8606 C       5      r5     0.0163
   2185 C           -0.0881    -7.4897     0.2331 C       5      r5    -0.0408
   2186 C           -1.3364    -6.8365     0.3218 C       5      r5     0.1290
   2187 O           -1.5865    -5.6402    -0.3078 O       5      r5    -0.4604
   2188 O           -2.4677   -13.6724     1.9532 O       5      r5    -0.4954
   2189 C           -3.4428   -13.1653     2.7765 C       5      r5     0.1291
   2190 C           -4.1404   -14.0740     3.5943 C       5      r5    -0.0099
   2191 C           -3.7693   -15.4008     3.3917 C       5      r5    -0.0313
   2192 C           -2.7757   -15.1810     2.3571 C       5      r5     0.1106
   2193 O           -2.3492    -7.6401    -4.3559 O       5      r5    -0.4590
   2194 C           -3.6514    -7.9637    -5.2275 C       5      r5     0.1044
   2195 C           -4.6000    -8.8796    -4.6563 C       5      r5    -0.0249
   2196 C           -3.8902    -9.1857    -3.4716 C       5      r5    -0.0015
   2197 C           -2.6912    -8.4862    -3.3630 C       5      r5     0.1394
   2198 C           -4.3000   -13.7910    -1.4668 C       0      r0     0.1290
   2199 C           -4.7744   -13.0974    -2.4538 C       0      r0    -0.0022
   2200 C           -5.0335   -13.7041    -3.8002 C       0      r0     0.0091
   2201 C           -5.6983   -12.9998    -4.9023 C       0      r0     0.1932
   2202 O           -4.0803   -15.1544    -1.5057 O       0      r0    -0.4898
   2203 C           -4.1224    -7.5421    -6.3346 C       0      r0    -0.0281
   2204 C           -2.2868   -16.3243     2.0611 C       0      r0    -0.0285
   2205 H           -0.4051   -10.7940    -2.3495 H       0      r0     0.0294
   2206 H           -1.5475   -13.0706    -1.5801 H       0      r0     0.1412
   2207 H           -0.7221    -9.6385     0.6515 H       0      r0     0.0348
   2208 H           -1.7106   -11.8904     1.2049 H       0      r0     0.0870
   2209 H           -3.2035    -7.0036     1.4982 H       0      r0     0.0853
   2210 H           -2.0761    -7.7263    -1.4668 H       0      r0     0.0750
   2211 H           -0.8316    -8.3925    -2.3568 H       0      r0     0.0506
   2212 H           -3.5354   -13.8595     0.3790 H       0      r0     0.1374
   2213 H           -4.9990   -12.7264     0.3898 H       0      r0     0.0527
   2214 H           -4.5288   -11.4546     3.5567 H       0      r0     0.1100
   2215 H            2.4695    -7.3737    -0.7095 H       0      r0     0.0640
   2216 H            0.2895    -8.3690     0.7566 H       0      r0     0.0401
   2217 H           -4.8591   -13.6925     4.3289 H       0      r0     0.0706
   2218 H           -4.0392   -16.2826     3.9015 H       0      r0     0.0790
   2219 H           -5.5331    -9.2908    -5.0384 H       0      r0     0.0826
   2220 H           -4.2063    -9.8677    -2.6945 H       0      r0     0.1180
   2221 H           -4.9557   -12.0692    -2.1926 H       0      r0     0.0905
   2222 H           -4.8014   -14.7597    -3.7290 H       0      r0     0.0955
   2223 H           -5.0591    -7.9805    -6.6384 H       0      r0     0.0341
   2224 H           -3.6533    -6.7963    -7.0142 H       0      r0     0.1063
   2225 H           -2.5626   -17.2686     2.5163 H       0      r0     0.0599
   2226 H           -1.5124   -16.4100     1.3164 H       0      r0     0.0722
   2227 C            4.8812    -1.3259    -2.4652 C       6      r6     0.1189
   2228 C            4.5942    -2.5529    -1.5624 C       6      r6    -0.0378
   2229 C            4.7657    -3.8096    -1.9909 C       6      r6    -0.0345
   2230 C            5.0875    -3.6911    -3.3673 C       6      r6    -0.0133
   2231 C            5.0496    -2.9449    -5.6895 C       5      r5     0.1459
   2232 O            5.5978    -1.6277    -5.8897 O       5      r5    -0.4691
   2233 C            4.7951    -0.8075    -5.1204 C       5      r5     0.1785
   2234 C            4.2186    -1.5378    -3.8893 C       6      r6     0.0123
   2235 C            4.3272    -2.9842    -4.3851 C       6      r6     0.0016
   2236 C            4.6154     0.4905    -5.3878 C       0      r0     0.0197
   2237 C            4.1628    -0.1843    -1.7240 C       0      r0     0.0049
   2238 C            6.2207    -4.6647    -3.7878 C       0      r0    -0.0141
   2239 C            5.2265    -3.9098    -6.6243 C       0      r0     0.0159
   2240 O            6.2678    -1.0365    -2.6169 O       0      r0    -0.5688
   2241 C            1.6787     2.0491    -3.7580 C       5      r5     0.1295
   2242 C            2.3052     3.0967    -4.6080 C       5      r5    -0.0058
   2243 C            3.4602     2.6155    -5.1977 C       5      r5    -0.0239
   2244 C            3.5776     1.3241    -4.8015 C       5      r5     0.1255
   2245 O            2.6029     0.8515    -3.8318 O       5      r5    -0.4792
   2246 O            3.7721    -5.6345    -5.5882 O       0      r0    -0.5606
   2247 C            4.5864    -5.1800    -6.5367 C       0      r0     0.1606
   2248 C            4.9697    -5.7340    -7.7462 C       0      r0    -0.0149
   2249 C            4.4528    -7.0618    -8.1531 C       0      r0    -0.0226
   2250 C            4.0356    -8.0826    -7.2769 C       0      r0     0.0120
   2251 O            4.1529     0.9319     0.3519 O       0      r0    -0.4716
   2252 C            6.0968     1.3862     1.9665 C       0      r0     0.1537
   2253 C            6.7213     0.4318     1.1274 C       0      r0    -0.0071
   2254 C            6.1351    -0.0270    -0.0977 C       0      r0     0.0126
   2255 C            4.8207     0.2889    -0.4221 C       0      r0     0.1713
   2256 C            6.1670    -5.9469    -2.8531 C       6      r6     0.1040
   2257 C            4.8349    -6.5825    -2.6301 C       6      r6    -0.0076
   2258 C            6.1159    -8.2485    -2.7036 C       6      r6     0.0369
   2259 C            7.4523    -7.9080    -2.0449 C       6      r6     0.1409
   2260 O            7.4736    -6.4424    -2.0106 O       6      r6    -0.4952
   2261 C            8.3150    -8.7189    -1.6832 C       0      r0     0.0148
   2262 C            0.6952     2.2003    -3.0580 C       0      r0    -0.0115
   2263 H            4.3664    -2.3966    -0.5194 H       0      r0     0.0405
   2264 H            4.7934    -4.6622    -1.3386 H       0      r0     0.0732
   2265 H            3.1932    -1.1314    -3.6282 H       0      r0     0.0846
   2266 H            3.3173    -3.4079    -4.5351 H       0      r0     0.1165
   2267 H            5.2402     0.9160    -6.1798 H       0      r0     0.0692
   2268 H            3.9997     0.6565    -2.4120 H       0      r0     0.1071
   2269 H            3.1241    -0.4570    -1.6459 H       0      r0     0.0762
   2270 H            6.1408    -5.0502    -4.8036 H       0      r0     0.0734
   2271 H            7.2100    -4.0861    -3.6695 H       0      r0     0.1375
   2272 H            5.8287    -3.6582    -7.4651 H       0      r0     0.0688
   2273 H            1.7683     4.0136    -4.8218 H       0      r0     0.0956
   2274 H            4.0610     3.1203    -5.9033 H       0      r0     0.0299
   2275 H            5.5090    -5.1595    -8.4678 H       0      r0     0.0402
   2276 H            4.5223    -7.4320    -9.1971 H       0      r0     0.0666
   2277 H            7.7142    -0.0016     1.3778 H       0      r0     0.0611
   2278 H            6.7326    -0.7154    -0.7036 H       0      r0     0.1145
   2279 H            3.8097    -6.3202    -2.8829 H       0      r0     0.1451
   2280 H            4.3672   -13.9824    -1.3026 H       0      r0     0.2915
   2281 H            8.1029    -9.7662    -1.6937 H       0      r0     0.0803
   2282 H            9.2987    -8.3660    -1.3415 H       0      r0     0.1135
   2283 H            0.0703     3.0659    -3.0802 H       0      r0     0.0655
   2284 H            0.4281     1.3800    -2.3703 H       0      r0     0.1158
   2285 C            3.9951   -12.0752    -0.9214 C       6      r6     0.1095
   2286 C            2.9822   -11.4395     0.0375 C       6      r6    -0.0389
   2287 C            1.8063   -12.0170     0.3522 C       6      r6    -0.0383
   2288 C            1.7148   -13.2219    -0.3636 C       6      r6    -0.0140
   2289 C            2.1841   -14.4656    -2.6913 C       5      r5     0.1344
   2290 O            3.4857   -14.4847    -3.2338 O       5      r5    -0.5102
   2291 C            3.8945   -13.1185    -3.2371 C       5      r5     0.1329
   2292 C            3.1738   -12.2294    -2.2665 C       6      r6    -0.0067
   2293 C            1.8669   -13.1823    -1.9114 C       6      r6    -0.0073
   2294 C            4.7853   -12.6292    -4.1873 C       0      r0    -0.0146
   2295 C            5.1316   -11.1128    -0.9672 C       0      r0     0.0266
   2296 C            1.0953   -14.5184     0.2376 C       0      r0    -0.0118
   2297 C            1.3027   -15.4078    -2.8911 C       0      r0     0.0177
   2298 O            4.6730   -13.3501    -0.5928 O       0      r0    -0.5893
   2299 C            5.7585    -9.2729    -3.7567 C       5      r5     0.1238
   2300 C            6.6919    -9.7433    -4.7374 C       5      r5    -0.0188
   2301 C            6.4308   -11.0906    -5.0599 C       5      r5    -0.0272
   2302 C            5.3417   -11.3478    -4.2568 C       5      r5     0.0828
   2303 O            4.7425   -10.2044    -3.4478 O       5      r5    -0.5067
   2304 O           -0.5852   -14.5496    -1.8508 O       0      r0    -0.4979
   2305 C           -0.1018   -15.5507    -2.3439 C       0      r0     0.1664
   2306 C           -0.7348   -16.7725    -2.6253 C       0      r0    -0.0178
   2307 C           -2.1729   -16.8468    -2.5183 C       0      r0    -0.0151
   2308 C           -2.8686   -15.7922    -1.9464 C       0      r0     0.1887
   2309 O            6.3110    -9.6936     0.3814 O       0      r0    -0.4870
   2310 C            6.8976    -9.9892     2.9291 C       0      r0     0.1606
   2311 C            6.2041   -11.1801     2.7959 C       0      r0    -0.0353
   2312 C            5.5501   -11.5079     1.5861 C       0      r0    -0.0181
   2313 C            5.6568   -10.6973     0.4381 C       0      r0     0.1669
   2314 C            1.8316   -14.6941     1.6016 C       5      r5     0.1335
   2315 C            3.2282   -14.7349     1.4367 C       5      r5    -0.0239
   2316 C            3.7394   -14.8489     2.6770 C       5      r5    -0.0468
   2317 C            2.5711   -14.8528     3.5946 C       5      r5     0.0839
   2318 O            1.1867   -14.8866     2.7907 O       5      r5    -0.4789
   2319 C            2.6232   -14.9160     4.8032 C       0      r0    -0.0198
   2320 C            5.6881    -7.2285    -3.4440 C       6      r6     0.0164
   2321 H            3.3911   -10.6231     0.6362 H       0      r0     0.0486
   2322 H            1.1252   -11.6371     1.1168 H       0      r0     0.0891
   2323 H            2.9710   -11.2489    -2.6284 H       0      r0     0.0677
   2324 H            0.9601   -12.8207    -2.3637 H       0      r0     0.0706
   2325 H            5.1598   -13.4272    -4.8381 H       0      r0     0.0507
   2326 H            5.9287   -11.4966    -1.6970 H       0      r0     0.0852
   2327 H            4.8911   -10.1259    -1.3945 H       0      r0     0.1099
   2328 H           -0.0416   -14.6703     0.3192 H       0      r0     0.1186
   2329 H            1.3060   -15.2394    -0.5601 H       0      r0     0.0588
   2330 H            1.6779   -16.1552    -3.5388 H       0      r0     0.0896
   2331 H            7.5831    -9.1931    -5.0711 H       0      r0     0.0584
   2332 H            6.9310   -11.8020    -5.6898 H       0      r0     0.0699
   2333 H           -0.1945   -17.5421    -3.1221 H       0      r0     0.0602
   2334 H           -2.6231   -17.8221    -2.7116 H       0      r0     0.0489
   2335 H            6.1519   -11.7974     3.7027 H       0      r0     0.0412
   2336 H            5.0000   -12.4218     1.5719 H       0      r0     0.0747
   2337 H            3.7603   -14.7785     0.5129 H       0      r0     0.0846
   2338 H            4.7371   -14.8507     2.9659 H       0      r0     0.0300
   2339 H            3.4924   -15.0087     5.4145 H       0      r0     0.1083
   2340 H            1.6443   -14.8676     5.3400 H       0      r0     0.0794
   2341 H            6.8098    -1.7684    -3.0560 H       0      r0     0.3703
   2342 H            7.3406    -5.5691    -0.6865 H       0      r0     0.3772
   2343 C          -12.1552    -0.6955     5.4995 C       0      r0     0.1587
   2344 C          -12.0929    -1.9629     4.8949 C       0      r0    -0.0309
   2345 C          -11.3355    -3.0740     5.1656 C       0      r0    -0.0256
   2346 C          -10.1858    -3.2197     6.0599 C       0      r0     0.1791
   2347 C           -9.9268    -4.7373     6.2710 C       0      r0     0.0066
   2348 O           -9.5302    -2.3717     6.5514 O       0      r0    -0.5149
   2349 O          -12.8025     0.3481     5.1342 O       0      r0    -0.4874
   2350 C           -9.1913    -5.2305     4.9537 C       5      r5     0.1489
   2351 C           -7.8005    -5.4223     5.0534 C       5      r5    -0.0360
   2352 C           -7.3865    -5.6453     3.7836 C       5      r5    -0.0422
   2353 C           -8.5714    -5.5424     2.9286 C       5      r5     0.0753
   2354 O           -9.9268    -5.2483     3.8516 O       5      r5    -0.4728
   2355 C           -8.5977    -5.6266     1.7189 C       0      r0    -0.0449
   2356 C          -11.2802    -0.4461     6.7181 C       0      r0     0.0268
   2357 C          -12.8400     1.2210    11.1591 C       7      r7     0.2381
   2358 C          -12.0796     1.4364     9.8079 C       0      r0    -0.0000
   2359 C          -12.0979     0.5431     8.7310 C       0      r0    -0.0071
   2360 C          -11.6067     0.8082     7.4370 C       0      r0     0.1986
   2361 O          -11.1758     1.9028     6.9517 O       0      r0    -0.4686
   2362 H          -12.7817    -1.9702     4.0669 H       0      r0     0.0758
   2363 H          -11.6745    -3.8957     4.5035 H       0      r0     0.0821
   2364 H           -9.2992    -4.8798     7.1897 H       0      r0     0.0882
   2365 H          -10.8318    -5.2716     6.3704 H       0      r0     0.0805
   2366 H           -7.2053    -5.3145     5.9745 H       0      r0     0.0332
   2367 H           -6.3351    -5.8171     3.4940 H       0      r0     0.0338
   2368 H           -7.6701    -5.7712     1.1573 H       0      r0     0.0636
   2369 H           -9.4514    -5.5042     1.1181 H       0      r0     0.0559
   2370 H          -11.2256    -1.2879     7.5073 H       0      r0     0.0580
   2371 H          -10.2403    -0.4297     6.3449 H       0      r0     0.1037
   2372 H          -11.6756     2.3984     9.4083 H       0      r0     0.0862
   2373 H          -12.4742    -0.4281     9.0802 H       0      r0     0.0622
   2374 C          -13.5395   -13.2632   -16.2722 C       0      r0     0.1678
   2375 C          -13.1979   -12.0010   -15.5925 C       0      r0    -0.0191
   2376 C          -12.1389   -11.1847   -15.6928 C       0      r0    -0.0267
   2377 C          -11.0031   -11.2131   -16.5870 C       0      r0     0.1725
   2378 C          -10.1260    -9.9112   -16.3131 C       0      r0    -0.0005
   2379 O          -10.6429   -11.9493   -17.4275 O       0      r0    -0.5054
   2380 O          -14.6428   -13.6574   -16.3973 O       0      r0    -0.5017
   2381 C           -9.3162    -9.3998   -17.5193 C       5      r5     0.1555
   2382 C           -9.5661    -9.8137    18.5720 C       5      r5     0.0063
   2383 C           -8.8539    -9.0565    17.6231 C       5      r5    -0.0084
   2384 C           -8.1134    -8.2184    18.5239 C       5      r5     0.1023
   2385 O           -8.4236    -8.4363   -17.3049 O       5      r5    -0.4770
   2386 C           -7.3691    -7.4442    17.8510 C       0      r0    -0.0306
   2387 C          -12.4133   -14.1544   -16.7800 C       0      r0     0.0202
   2388 C          -11.8926   -17.6669   -13.9330 C       0      r0    -0.0066
   2389 C          -12.5706   -16.4309   -13.7167 C       0      r0    -0.0252
   2390 C          -12.6404   -15.3251   -14.6718 C       0      r0    -0.0067
   2391 C          -12.0905   -15.3079   -15.8262 C       0      r0     0.1440
   2392 O          -11.2264   -16.2366   -16.3634 O       0      r0    -0.4883
   2393 H          -13.8620   -11.6589   -14.8234 H       0      r0     0.0555
   2394 H          -12.1668   -10.3607   -15.0039 H       0      r0     0.0632
   2395 H          -10.7014    -9.1163   -15.8507 H       0      r0     0.0923
   2396 H           -9.4551   -10.2484   -15.5111 H       0      r0     0.0577
   2397 H          -10.2603   -10.6039    18.4257 H       0      r0     0.1154
   2398 H           -8.8338    -9.1313    16.4943 H       0      r0     0.1155
   2399 H           -7.2299    -7.4837    16.7345 H       0      r0     0.0646
   2400 H           -6.7626    -6.6394    18.3513 H       0      r0     0.0569
   2401 H          -12.5908   -14.5219   -17.8221 H       0      r0     0.1449
   2402 H          -11.5244   -13.5252   -16.8795 H       0      r0     0.1148
   2403 H          -13.1657   -16.1276   -12.8501 H       0      r0     0.0601
   2404 H          -13.2088   -14.4576   -14.4686 H       0      r0     0.0586
   2405 C          -11.7164     9.0903    10.0661 C       5      r5     0.1466
   2406 O          -10.6544     9.9050     9.6517 O       5      r5    -0.4773
   2407 C          -11.0966    11.1021    10.5806 C       5      r5     0.0934
   2408 C          -12.3018    10.9706    11.2397 C       5      r5    -0.0245
   2409 C          -12.7255     9.6852    10.8861 C       5      r5     0.0119
   2410 C          -11.6968     7.7562     9.7108 C       0      r0     0.0156
   2411 C          -10.4494    13.3568    11.4764 C       5      r5     0.1174
   2412 O           -9.3080    14.3668    11.3636 O       5      r5    -0.4617
   2413 C          -10.1860    15.3412    12.6337 C       5      r5     0.0727
   2414 C          -11.3662    14.7896    13.0606 C       5      r5    -0.0211
   2415 C          -11.5303    13.5461    12.3285 C       5      r5    -0.0309
   2416 C          -10.2504    12.2066    10.6675 C       0      r0     0.0090
   2417 C          -12.7013     6.8333    10.2180 C       5      r5     0.1235
   2418 C          -12.6456     5.5374     9.7360 C       5      r5    -0.0186
   2419 C          -13.6932     4.8767    10.3298 C       5      r5    -0.0185
   2420 C          -14.4964     5.7122    11.2452 C       5      r5     0.0864
   2421 O          -13.7100     7.1439    11.1745 O       5      r5    -0.4798
   2422 C          -15.5509     5.4204    11.7642 C       0      r0    -0.0298
   2423 H          -12.7930    11.6563    11.9001 H       0      r0     0.0527
   2424 H          -13.6347     9.2726    11.2318 H       0      r0     0.1167
   2425 H          -10.9625     7.4150     9.0564 H       0      r0     0.0830
   2426 H          -12.1066    15.2806    13.7465 H       0      r0     0.1057
   2427 H          -12.4273    12.9531    12.4241 H       0      r0     0.0383
   2428 H           -9.3234    12.2667    10.0911 H       0      r0     0.0850
   2429 H          -11.9148     5.1171     9.0761 H       0      r0     0.0783
   2430 H          -13.8560     3.8565    10.0213 H       0      r0     0.0699
   2431 H          -15.9900     4.4072    11.5627 H       0      r0     0.0717
   2432 H          -16.1324     6.1015    12.3697 H       0      r0     0.1063
   2433 C          -18.2062   -17.6139     6.9878 C       5      r5     0.1202
   2434 O          -17.2868   -18.6223     6.3281 O       5      r5    -0.4811
   2435 C          -16.1459   -18.2620     7.0383 C       5      r5     0.1294
   2436 C          -16.3038   -17.1974     7.9372 C       5      r5    -0.0072
   2437 C          -17.6377   -16.7404     7.9121 C       5      r5     0.0021
   2438 C           17.7389   -17.5890     6.5635 C       0      r0     0.0100
   2439 C          -13.7242   -18.7633     7.5135 C       5      r5     0.1319
   2440 O          -12.5849    18.5504     7.0225 O       5      r5    -0.4410
   2441 C          -11.5543   -18.6571     8.0133 C       5      r5     0.2422
   2442 C          -12.4063   -17.7885     8.9877 C       5      r5     0.0012
   2443 C          -13.6933   -17.8901     8.6861 C       5      r5    -0.0172
   2444 C          -14.9412   -18.9252     6.7947 C       0      r0     0.0226
   2445 C           16.8150   -16.6180     7.0513 C       5      r5     0.1395
   2446 C           15.4903   -16.7749     6.5889 C       5      r5    -0.0227
   2447 C           14.6039   -15.9126     7.2648 C       5      r5    -0.0309
   2448 C           15.5415   -15.1691     8.0146 C       5      r5     0.1033
   2449 O           17.0872   -15.6093     7.8897 O       5      r5    -0.4609
   2450 C           14.9052   -14.2487     8.6466 C       0      r0    -0.0319
   2451 H          -15.5367   -16.6532     8.4614 H       0      r0     0.0630
   2452 H          -18.1043   -15.9473     8.3845 H       0      r0     0.1085
   2453 H           17.4402   -18.2550     5.7738 H       0      r0     0.0726
   2454 H          -11.9655   -17.1873     9.7771 H       0      r0     0.0794
   2455 H          -14.4858   -17.4130     9.1837 H       0      r0     0.0717
   2456 H          -14.8856    18.3224     5.9517 H       0      r0     0.1240
   2457 H           15.2034   -17.4566     5.8374 H       0      r0     0.0516
   2458 H           13.6051   -15.7617     7.0952 H       0      r0     0.0483
   2459 H           13.8336   -14.0491     8.5573 H       0      r0     0.0381
   2460 H           15.3084   -13.5748     9.3634 H       0      r0     0.1195
   2461 C           -3.5862    13.0128    15.2964 C       5      r5     0.1215
   2462 O           -4.1175    13.1644    13.9155 O       5      r5    -0.4811
   2463 C           -3.2029    14.2484    13.5665 C       5      r5     0.1487
   2464 C           -2.2179    14.7907    14.4829 C       5      r5    -0.0323
   2465 C           -2.5636    13.9732    15.5651 C       5      r5    -0.0214
   2466 C           -4.0988    12.2406    16.2998 C       0      r0    -0.0303
   2467 C           -3.0548    14.9233    12.5013 C       0      r0     0.1635
   2468 H           -1.5188    15.5672    14.4782 H       0      r0     0.0973
   2469 H           -2.1024    14.0593    16.5357 H       0      r0     0.0564
   2470 H           -4.2646    11.9414    17.2659 H       0      r0     0.0427
   2471 H           -2.3600    15.7575    12.4626 H       0      r0     0.0924
   2472 C          -11.3790     6.8473   -17.5529 C       5      r5     0.1080
   2473 O          -11.0393     8.2192   -17.0592 O       5      r5    -0.4716
   2474 C          -11.8494     8.2369   -15.8881 C       5      r5     0.1321
   2475 C          -12.6761     7.1164   -15.6695 C       5      r5    -0.0306
   2476 C          -12.3266     6.2178   -16.6165 C       5      r5    -0.0423
   2477 C          -11.0354     6.1923   -18.6288 C       0      r0    -0.0426
   2478 C          -12.0437     9.3493   -14.9722 C       0      r0    -0.0188
   2479 H          -13.3826     6.9967   -14.8500 H       0      r0     0.0507
   2480 H          -12.7949     5.2209   -16.7161 H       0      r0     0.0282
   2481 H          -10.8233     5.5298    17.9753 H       0      r0     0.0399
   2482 H          -12.6946     9.2507   -14.1043 H       0      r0     0.0457
   2483 C          -11.2073    17.8938   -13.2315 C       5      r5     0.1416
   2484 O          -10.6053    16.6274   -13.5366 O       5      r5    -0.4738
   2485 C          -11.0083    15.8965   -12.3136 C       5      r5     0.1158
   2486 C          -11.7088    16.7989   -11.4140 C       5      r5    -0.0074
   2487 C          -11.8717    18.0099   -12.0195 C       5      r5    -0.0066
   2488 C          -11.1763   -18.8845   -14.1418 C       0      r0    -0.0055
   2489 C          -10.8200    14.6624   -11.9350 C       0      r0    -0.0188
   2490 H          -12.0667    16.5321   -10.4130 H       0      r0     0.0830
   2491 H          -12.3406    18.8860   -11.6676 H       0      r0     0.0637
   2492 H          -10.6405   -18.9333   -15.0785 H       0      r0     0.0769
   2493 H          -10.5925    13.6638   -11.7183 H       0      r0     0.0593
   2494 C           -3.5369     7.2352    -7.5358 C       5      r5     0.1581
   2495 O           -4.3387     6.9163    -6.4494 O       5      r5    -0.4312
   2496 C           -5.1609     5.7997    -7.1588 C       5      r5     0.1342
   2497 C           -4.6733     5.6618    -8.5211 C       5      r5    -0.0159
   2498 C           -3.7495     6.6154    -8.8273 C       5      r5    -0.0112
   2499 C           -2.4993     8.2214    -7.5949 C       0      r0    -0.0109
   2500 C           -6.1828     5.0655    -6.6594 C       0      r0     0.0236
   2501 H           -5.1102     4.9401    -9.1688 H       0      r0     0.0455
   2502 H           -3.2736     6.7906    -9.7805 H       0      r0     0.0473
   2503 H           -1.9125     8.3448    -8.4984 H       0      r0     0.0426
   2504 H           -6.9008     4.2760    -6.7543 H       0      r0     0.0911
   2505 C           16.7290    18.7779    -0.2212 C       6      r6     0.0560
   2506 C           15.5511    18.4734     0.5886 C       6      r6    -0.0664
   2507 C           15.5539    17.1548     0.5307 C       6      r6    -0.0192
   2508 C           16.7604    16.6384    -0.2700 C       6      r6     0.1526
   2509 C           17.2120    16.5558    -2.8590 C       5      r5     0.1741
   2510 O           17.9776    17.5726    -3.3235 O       5      r5    -0.4817
   2511 C           17.3330    18.7807    -2.8052 C       5      r5     0.1447
   2512 C           16.2965    18.5025    -1.7513 C       6      r6    -0.0020
   2513 C           16.2526    16.9697    -1.7917 C       6      r6     0.0297
   2514 C           17.5990   -17.9393    -3.3334 C       0      r0     0.0249
   2515 C           17.3358   -17.7090     0.0164 C       0      r0    -0.0280
   2516 C           17.1464    15.0790     0.0308 C       0      r0     0.0283
   2517 C           17.2253    15.2284    -3.3049 C       0      r0     0.0018
   2518 O           17.8380    17.4643    -0.1363 O       5      r5    -0.4337
   2519 C           16.4266   -14.5763    -3.4020 C       5      r5     0.0999
   2520 C           15.4821   -15.2172    -2.5037 C       5      r5    -0.0399
   2521 C           15.8594   -16.5409    -2.2989 C       5      r5    -0.0479
   2522 C           16.9313   -16.7012    -3.1707 C       5      r5     0.1171
   2523 O           17.4163   -15.5809    -3.9584 O       5      r5    -0.4696
   2524 O           15.4511    14.1295    -2.0639 O       5      r5    -0.5016
   2525 C           16.4349    14.0748    -3.0005 C       5      r5     0.1252
   2526 C           16.6802    12.9001    -3.7360 C       5      r5    -0.0244
   2527 C           15.8748    11.8333    -3.3357 C       5      r5    -0.0362
   2528 C           15.1523    12.5009    -2.3032 C       5      r5     0.0946
   2529 O           18.5385   -16.4749     1.7956 O       5      r5    -0.4976
   2530 C          -18.1403   -17.1702     3.2063 C       5      r5     0.0764
   2531 C          -18.6287   -18.5624     3.2805 C       5      r5    -0.0191
   2532 C           18.0130   -18.8589     2.1098 C       5      r5     0.0003
   2533 C           18.0414   -17.6420     1.4227 C       5      r5     0.1437
   2534 C           17.3672    14.8301     1.5425 C       5      r5     0.1829
   2535 C           16.9964    13.5609     2.0458 C       5      r5     0.0013
   2536 C           17.0655    13.6861     3.3845 C       5      r5    -0.0223
   2537 C           17.6663    15.0360     3.6908 C       5      r5     0.0960
   2538 O           17.8414    15.7827     2.3292 O       5      r5    -0.4453
   2539 C          -17.4859   -16.6212     4.0612 C       0      r0    -0.0251
   2540 C           14.3741    11.7089    -1.7369 C       0      r0    -0.0197
   2541 H           14.8785   -18.8153     1.1329 H       0      r0     0.0217
   2542 H           14.7870    16.5568     1.0406 H       0      r0     0.1125
   2543 H           15.3666   -18.9159    -2.0180 H       0      r0     0.0288
   2544 H           15.2793    16.5092    -1.6699 H       0      r0     0.0540
   2545 H           18.4433   -18.0793    -4.0172 H       0      r0     0.1115
   2546 H           17.9773   -17.3574    -0.7853 H       0      r0     0.0656
   2547 H           16.5776   -16.9232    -0.1225 H       0      r0     0.0385
   2548 H           16.2975    14.4130    -0.1719 H       0      r0     0.0959
   2549 H           18.0126    14.8430    -0.6334 H       0      r0     0.1078
   2550 H           17.9547    15.0835    -4.0676 H       0      r0     0.0639
   2551 H           14.7104   -14.6938    -2.0080 H       0      r0     0.0360
   2552 H           15.3883   -17.2785    -1.6215 H       0      r0     0.0196
   2553 H           17.3431    12.7441    -4.5887 H       0      r0     0.0712
   2554 H           15.8076    10.7619    -3.6710 H       0      r0     0.0575
   2555 H          -18.4003    18.6163     4.0162 H       0      r0     0.0897
   2556 H           17.5256    18.1758     1.7751 H       0      r0     0.1376
   2557 H           16.6864    12.7318     1.4686 H       0      r0     0.0730
   2558 H           16.7442    12.8656     3.9990 H       0      r0     0.0590
   2559 H          -17.1285   -17.0940     4.9761 H       0      r0     0.0923
   2560 H          -17.0681   -15.6428     4.0043 H       0      r0     0.1044
   2561 H           14.2742    10.6492    -2.0134 H       0      r0     0.0901
   2562 H           13.8296    12.1874    -0.9013 H       0      r0     0.0797
   2563 C           13.0854    13.6855     5.3365 C       6      r6     0.0860
   2564 C           13.3360    12.4117     4.5973 C       6      r6    -0.0393
   2565 C           12.2859    11.7474     5.0640 C       6      r6    -0.0244
   2566 C           11.7419    12.3863     6.2465 C       6      r6     0.1097
   2567 C           12.9371    12.7256     8.7225 C       5      r5     0.1385
   2568 O           13.2052    14.0273     9.0312 O       5      r5    -0.4818
   2569 C           13.8996    14.5051     7.7915 C       5      r5     0.1161
   2570 C           13.9147    13.5087     6.6707 C       6      r6    -0.0161
   2571 C           12.9724    12.3096     7.3026 C       6      r6     0.0043
   2572 C           14.4657    15.6850     7.6491 C       0      r0     0.0141
   2573 C           13.5028    14.8999     4.3997 C       0      r0    -0.0137
   2574 C           10.5491    11.7587     6.7790 C       0      r0     0.0101
   2575 C           12.6044    11.8171     9.7622 C       0      r0     0.0018
   2576 O           11.5840    13.7563     5.8766 O       5      r5    -0.4815
   2577 C           16.4388    17.1253     4.8929 C       5      r5     0.1173
   2578 C           16.7707    15.7527     4.7667 C       5      r5     0.0064
   2579 C           16.0530    15.1696     5.8335 C       5      r5    -0.0441
   2580 C           15.2802    16.1305     6.5105 C       5      r5     0.1349
   2581 O           15.3836    17.4290     6.1320 O       5      r5    -0.4644
   2582 O           12.2425     9.8267     8.3807 O       5      r5    -0.4815
   2583 C           12.3142    10.4796     9.5621 C       5      r5     0.1415
   2584 C           12.2362     9.7168    10.7709 C       5      r5     0.0001
   2585 C           11.9069     8.3812    10.5332 C       5      r5    -0.0062
   2586 C           11.9501     8.4115     9.0835 C       5      r5     0.1216
   2587 O           13.9107    15.0075     1.8958 O       5      r5    -0.4719
   2588 C           12.8427    14.8637     0.8135 C       5      r5     0.1025
   2589 C           11.5363    14.5281     1.3243 C       5      r5    -0.0322
   2590 C           11.7522    14.2686     2.7288 C       5      r5    -0.0140
   2591 C           13.0156    14.7009     2.9380 C       5      r5     0.1338
   2592 C            9.7516    12.6295     7.8281 C       0      r0     0.2025
   2593 C           10.2736    13.9047     8.2125 C       0      r0     0.0205
   2594 C            9.6227    14.8438     9.0347 C       0      r0    -0.0118
   2595 C            8.4688    14.5441     9.7388 C       0      r0     0.1986
   2596 O            8.8246    12.0661     8.3054 O       0      r0    -0.4587
   2597 C           12.8006    14.9555    -0.4139 C       0      r0    -0.0349
   2598 C           11.6424     7.2784     8.6444 C       0      r0    -0.0053
   2599 H           14.0559    12.1835     3.7987 H       0      r0     0.0693
   2600 H           12.0064    10.7500     4.7387 H       0      r0     0.0490
   2601 H           14.8773    13.2131     6.3313 H       0      r0     0.0200
   2602 H           13.3179    11.3403     7.3207 H       0      r0     0.0805
   2603 H           14.2875    16.1529     8.6567 H       0      r0     0.1018
   2604 H           13.3065    15.8763     4.8074 H       0      r0     0.0712
   2605 H           14.5673    15.0113     4.2285 H       0      r0     0.0742
   2606 H            9.8496    11.5208     5.9707 H       0      r0     0.0709
   2607 H           10.7671    10.7349     7.1887 H       0      r0     0.1023
   2608 H           12.6359    12.1253    10.7785 H       0      r0     0.0548
   2609 H           18.6298    14.9445     4.1734 H       0      r0     0.0927
   2610 H           16.0836    14.1405     6.1835 H       0      r0     0.0162
   2611 H           12.3470    10.1802    11.7551 H       0      r0     0.0852
   2612 H           11.8418     7.5411    11.2478 H       0      r0     0.0524
   2613 H           10.6066    14.2708     0.7227 H       0      r0     0.0544
   2614 H           11.0991    13.8832     3.4657 H       0      r0     0.0771
   2615 H           11.1867    14.2106     7.7842 H       0      r0     0.1318
   2616 H           10.1483    15.7952     9.2399 H       0      r0     0.0636
   2617 H           11.8397    14.7816    -0.8927 H       0      r0     0.0559
   2618 H           13.6320    15.1670    -0.9798 H       0      r0     0.0833
   2619 H           11.4877     6.3790     9.3073 H       0      r0     0.0709
   2620 H           11.4600     7.1322     7.5513 H       0      r0     0.1244
   2621 C          -13.9745    17.1013    -2.2775 C       6      r6     0.1337
   2622 C          -13.1297    15.8947    -2.5444 C       6      r6    -0.0201
   2623 C          -13.4801    14.6557    -2.1662 C       6      r6    -0.0619
   2624 C          -14.8458    14.2814    -1.6694 C       6      r6    -0.0311
   2625 C          -16.5954    14.6543    -2.8974 C       5      r5     0.1477
   2626 O          -16.4870    15.2332    -4.1311 O       5      r5    -0.4893
   2627 C          -16.1597    16.6204    -3.8009 C       5      r5     0.1517
   2628 C          -15.5497    16.7730    -2.4313 C       6      r6     0.0077
   2629 C          -15.9376    15.3228    -1.7795 C       6      r6    -0.0065
   2630 C          -16.4896    17.7143    -4.5747 C       0      r0     0.0305
   2631 C          -13.7619    17.3039    -0.6520 C       0      r0    -0.0144
   2632 C          -14.9290    12.8753    -1.3700 C       0      r0    -0.0329
   2633 C          -17.5541    13.5610    -2.6752 C       0      r0    -0.0064
   2634 O          -13.5903    18.2148    -3.0462 O       0      r0    -0.5454
   2635 C          -15.8564   -16.6442    -3.4344 C       5      r5     0.0979
   2636 C          -16.4215   -16.6745    -4.7804 C       5      r5    -0.0055
   2637 C          -16.7214   -17.9323    -5.2704 C       5      r5    -0.0137
   2638 C          -16.3081   -18.8199    -4.2643 C       5      r5     0.1520
   2639 O          -15.7676   -18.2850    -3.0697 O       5      r5    -0.4918
   2640 O          -17.3677    13.5474    -0.1971 O       0      r0    -0.5786
   2641 C          -17.8708    13.0957    -1.4009 C       0      r0     0.1140
   2642 C           18.5478    12.0257    -1.6484 C       0      r0    -0.0408
   2643 C           17.9491    11.2038    -0.6057 C       0      r0    -0.0525
   2644 C           18.3240    11.1899     0.7417 C       0      r0    -0.0348
   2645 O          -13.8175   -18.1261    -0.3677 O       5      r5    -0.4369
   2646 C          -15.1093   -17.1678     0.1009 C       5      r5     0.0847
   2647 C          -16.1793   -18.0866     0.3265 C       5      r5    -0.0078
   2648 C          -15.7556    18.5301     0.2281 C       5      r5    -0.0118
   2649 C          -14.4532    18.6114    -0.2313 C       5      r5     0.1523
   2650 C          -14.0359    12.1649    -0.4968 C       3      r3    -0.0259
   2651 C          -13.3797    12.4611     0.6662 C       3      r3    -0.0346
   2652 C          -14.7279    11.4682     2.0466 C       0      r0     0.0205
   2653 C          -15.2369    12.7640     2.7461 C       0      r0     0.1156
   2654 O          -15.5040    12.7453     4.2901 O       0      r0    -0.4723
   2655 C          -15.4684    13.7509     2.0934 C       0      r0    -0.0213
   2656 C          -15.4558   -15.7423    -2.7448 C       0      r0    -0.0252
   2657 H          -12.1681    16.0277    -2.9393 H       0      r0     0.0680
   2658 H          -12.7773    13.8642    -2.2040 H       0      r0     0.0615
   2659 H          -15.9423    17.7146    -2.0604 H       0      r0     0.1045
   2660 H          -16.5333    15.3248    -0.8411 H       0      r0     0.1125
   2661 H          -17.0073    17.2471    -5.4456 H       0      r0     0.0831
   2662 H          -13.9710    16.3278    -0.1622 H       0      r0     0.0243
   2663 H          -12.6784    17.3818    -0.3583 H       0      r0     0.1326
   2664 H          -15.9018    12.5833    -1.6580 H       0      r0     0.0831
   2665 H          -17.4898    12.7636     0.4262 H       0      r0     0.2544
   2666 H          -18.1693    13.2036    -3.4979 H       0      r0     0.0624
   2667 H          -16.6825   -15.7595    -5.3468 H       0      r0     0.1037
   2668 H          -17.1476   -18.1877    -6.2273 H       0      r0     0.0508
   2669 H           18.1992    11.8181    -2.6637 H       0      r0     0.0359
   2670 H           17.3061    10.4094    -0.9820 H       0      r0     0.0425
   2671 H          -17.1693   -17.8241     0.6768 H       0      r0     0.0816
   2672 H          -16.3399    17.6579     0.4423 H       0      r0     0.0685
   2673 H          -13.1653    13.3239     1.2752 H       0      r0     0.0470
   2674 H          -14.7705    10.1770     4.7276 H       0      r0     0.3843
   2675 H          -15.3259    13.7044     1.0167 H       0      r0     0.0656
   2676 H          -15.7508    14.6711     2.5180 H       0      r0     0.0881
   2677 H          -15.3720   -14.6987    -3.0077 H       0      r0     0.0877
   2678 H          -15.0501   -15.8213    -1.7460 H       0      r0     0.0641
   2679 C          -14.9776     7.4791     6.4632 C       6      r6     0.1003
   2680 C          -14.9702     6.2493     7.2593 C       6      r6    -0.0187
   2681 C          -15.8644     5.9100     8.1980 C       6      r6    -0.0393
   2682 C          -17.0276     6.7260     8.3894 C       6      r6    -0.0384
   2683 C           18.6205     7.2530     6.6211 C       5      r5     0.1357
   2684 O          -18.3132     6.5765     5.3634 O       5      r5    -0.4887
   2685 C          -17.1749     7.1978     4.9723 C       5      r5     0.1618
   2686 C          -16.4187     7.8563     6.1026 C       6      r6     0.0065
   2687 C          -17.4443     7.7689     7.3644 C       6      r6    -0.0149
   2688 C          -16.5964     7.1890     3.6713 C       0      r0     0.0219
   2689 C          -14.5405     8.6496     7.4205 C       0      r0    -0.0119
   2690 C          -17.9969     6.3974     9.3808 C       0      r0    -0.0274
   2691 C           17.4018     7.1851     7.1039 C       0      r0     0.0312
   2692 O          -13.8470     7.4229     5.2315 O       0      r0    -0.4685
   2693 C          -14.9856    10.1094     2.3405 C       5      r5     0.1292
   2694 C          -14.5629     8.9972     1.6274 C       5      r5     0.0021
   2695 C          -15.1281     7.7930     2.1477 C       5      r5    -0.0115
   2696 C          -15.8540     8.3279     3.2603 C       5      r5     0.1561
   2697 O          -15.8299     9.7037     3.6164 O       5      r5    -0.5108
   2698 O           17.6710     8.8895     8.7592 O       0      r0    -0.5897
   2699 C           16.9689     7.7645     8.3524 C       0      r0     0.1247
   2700 C           15.9119     7.2592     9.0204 C       0      r0    -0.0103
   2701 C           15.2956     7.6966    10.2699 C       0      r0    -0.0390
   2702 C           15.6087     8.9592    10.7651 C       0      r0    -0.0096
   2703 O          -14.1509    10.2405     5.5762 O       0      r0    -0.5561
   2704 C          -15.6706    12.5418     5.6359 C       0      r0     0.1739
   2705 C          -15.7833    12.1847     6.9621 C       0      r0    -0.0278
   2706 C          -15.4408    10.8164     7.4568 C       0      r0    -0.0117
   2707 C          -14.7364     9.9985     6.7637 C       0      r0     0.1584
   2708 C          -18.0792     5.1420    10.0014 C       5      r5     0.1131
   2709 C           18.2082     4.9647    11.0076 C       5      r5    -0.0320
   2710 C           18.3398     3.6387    11.3374 C       5      r5    -0.0081
   2711 C          -17.8238     2.9509    10.6703 C       5      r5     0.1068
   2712 O          -17.1874     4.0509     9.6960 O       5      r5    -0.4864
   2713 C          -17.4116     1.8194    10.8283 C       0      r0    -0.0041
   2714 C          -14.1886    11.2868     0.7080 C       3      r3    -0.0308
   2715 H          -14.0651     5.7483     7.1047 H       0      r0     0.1151
   2716 H          -15.8070     5.0205     8.8296 H       0      r0     0.1271
   2717 H          -16.5117     8.8316     5.6001 H       0      r0     0.0905
   2718 H          -17.4663     8.6106     8.0547 H       0      r0     0.0805
   2719 H          -16.8447     6.3698     2.8950 H       0      r0     0.1270
   2720 H          -14.9521     8.5610     8.4029 H       0      r0     0.0370
   2721 H          -13.5091     8.4642     7.8920 H       0      r0     0.0693
   2722 H           18.5038     7.0944     9.7257 H       0      r0     0.0763
   2723 H           17.1731     9.2485     9.5073 H       0      r0     0.2623
   2724 H           16.7604     6.6052     6.5108 H       0      r0     0.1024
   2725 H          -13.9273     9.0542     0.7196 H       0      r0     0.0711
   2726 H          -14.9576     6.8075     1.8256 H       0      r0     0.0572
   2727 H           15.4228     6.4390     8.5297 H       0      r0     0.1345
   2728 H           14.3894     7.2639    10.6773 H       0      r0     0.0555
   2729 H          -16.2940    12.8666     7.5801 H       0      r0     0.0391
   2730 H          -15.7297    10.4567     8.4507 H       0      r0     0.0872
   2731 H           17.5593     5.7209    11.4058 H       0      r0     0.0357
   2732 H           17.7570     3.1484    12.1136 H       0      r0     0.0856
   2733 H          -17.9370     1.0698    11.3504 H       0      r0     0.1086
   2734 H          -16.5330     1.4158    10.3693 H       0      r0     0.0842
   2735 H          -14.3576    18.9290    -2.9005 H       0      r0     0.3775
   2736 C           10.3255    -1.9017    -1.5257 C       0      r0     0.1863
   2737 C           11.0012    -1.7910    -2.8277 C       0      r0    -0.0077
   2738 C           10.5276    -2.2802    -3.9520 C       0      r0    -0.0103
   2739 C            9.1744    -2.6958    -4.1777 C       0      r0     0.1858
   2740 C            9.0167    -3.1976    -5.6477 C       0      r0    -0.0065
   2741 O            8.3113    -2.6585    -3.3808 O       0      r0    -0.5229
   2742 O           10.3617    -1.0929    -0.6829 O       0      r0    -0.4936
   2743 C            9.0631    -4.7219    -5.6606 C       5      r5     0.0896
   2744 C            9.5501    -5.3936    -4.6846 C       5      r5    -0.0210
   2745 C            9.5342    -6.7772    -5.0613 C       5      r5    -0.0358
   2746 C            8.9415    -6.7828    -6.3722 C       5      r5     0.0760
   2747 O            8.5467    -5.3052    -7.0354 O       5      r5    -0.4721
   2748 C            8.7925    -7.9459    -6.8076 C       0      r0    -0.0435
   2749 C            9.5925    -3.2531    -1.1136 C       0      r0     0.0268
   2750 C           12.7117    -5.3814     1.3309 C       0      r0     0.1347
   2751 C           11.9462    -4.4707     1.7253 C       0      r0    -0.0161
   2752 C           11.0957    -3.5723     0.7317 C       0      r0    -0.0086
   2753 C           10.4270    -4.1031    -0.1217 C       0      r0     0.1226
   2754 O           10.1720    -5.6206    -0.2273 O       0      r0    -0.4604
   2755 H           12.0011    -1.3213    -3.0830 H       0      r0     0.0525
   2756 H           11.1178    -2.3295    -4.8621 H       0      r0     0.0558
   2757 H            8.1158    -2.8367    -6.1580 H       0      r0     0.1012
   2758 H            9.6736    -2.8341    -6.4268 H       0      r0     0.0607
   2759 H            9.9107    -5.0671    -3.7092 H       0      r0     0.0700
   2760 H            9.8035    -7.6233    -4.3740 H       0      r0     0.0530
   2761 H            9.1148    -8.8200    -6.2176 H       0      r0     0.0726
   2762 H            8.2890    -8.1675    -7.7147 H       0      r0     0.0703
   2763 H            8.5688    -2.9723    -0.7774 H       0      r0     0.1090
   2764 H            9.2908    -3.9453    -1.8620 H       0      r0     0.1159
   2765 H           12.0385    -4.2917     2.8094 H       0      r0     0.0546
   2766 H           11.2732    -2.5200     0.7955 H       0      r0     0.0813
   2767 C           10.8868     7.7377    -5.4171 C       0      r0     0.1858
   2768 C           10.1261     6.4336    -5.3575 C       0      r0    -0.0170
   2769 C            9.4930     5.9789    -4.3035 C       0      r0    -0.0305
   2770 C            9.1948     6.7668    -3.0857 C       0      r0     0.1715
   2771 C            8.1638     5.8943    -2.1858 C       0      r0    -0.0235
   2772 O            9.5553     7.8229    -2.7777 O       0      r0    -0.4957
   2773 O           11.1194     8.3236    -6.4004 O       0      r0    -0.4844
   2774 C            8.7422     4.4756    -2.1631 C       5      r5     0.1186
   2775 C            9.8204     4.2936    -1.3314 C       5      r5    -0.0279
   2776 C           10.0309     2.9230    -1.3359 C       5      r5    -0.0252
   2777 C            9.1019     2.3037    -2.2507 C       5      r5     0.0963
   2778 O            8.2094     3.4486    -2.9382 O       5      r5    -0.4828
   2779 C            9.1128     1.0204    -2.4664 C       0      r0    -0.0178
   2780 C           11.7217     7.9309    -4.1663 C       0      r0     0.0376
   2781 C           11.4584    12.2031    -3.5495 C       0      r0     0.1414
   2782 C           10.3892    11.5778    -4.1126 C       0      r0    -0.0203
   2783 C           10.4857    10.1719    -4.2479 C       0      r0    -0.0028
   2784 C           11.7438     9.4742    -3.8851 C       0      r0     0.2040
   2785 O           12.7618     9.7795    -3.4027 O       0      r0    -0.4944
   2786 H           10.1098     5.8589    -6.2851 H       0      r0     0.0675
   2787 H            8.9803     4.9991    -4.3842 H       0      r0     0.0673
   2788 H            8.0410     6.2576    -1.1603 H       0      r0     0.0530
   2789 H            7.2023     5.9172    -2.7077 H       0      r0     0.0656
   2790 H           10.3301     5.1195    -0.8839 H       0      r0     0.0512
   2791 H           10.9161     2.4821    -0.8846 H       0      r0     0.0514
   2792 H            9.8673     0.2948    -2.0566 H       0      r0     0.1042
   2793 H            8.4257     0.5203    -3.0703 H       0      r0     0.1000
   2794 H           11.4478     7.3832    -3.2992 H       0      r0     0.0977
   2795 H           12.7110     7.5269    -4.3287 H       0      r0     0.0874
   2796 H            9.5490    12.0948    -4.4532 H       0      r0     0.0979
   2797 H            9.7418     9.5904    -4.6986 H       0      r0     0.0851
   2798 C            7.8661    11.9500     3.8914 C       5      r5     0.1393
   2799 O            7.2016    12.1049     5.1054 O       5      r5    -0.4742
   2800 C            7.4800    13.6531     5.1857 C       5      r5     0.1114
   2801 C            8.1707    14.2244     4.1091 C       5      r5    -0.0297
   2802 C            8.4977    13.0873     3.3547 C       5      r5    -0.0140
   2803 C            8.0087    10.6634     3.2548 C       0      r0    -0.0012
   2804 C            7.4826    15.7151     6.6048 C       0      r0     0.1544
   2805 O            6.6834    16.5006     7.3062 O       0      r0    -0.4570
   2806 C            8.9975    18.0810     7.6355 C       0      r0     0.0413
   2807 C            9.4597    17.1928     6.6401 C       0      r0    -0.0042
   2808 C            8.7828    16.0175     6.2444 C       0      r0    -0.0043
   2809 C            7.0724    14.3394     6.3013 C       0      r0     0.0406
   2810 C            8.5849    10.4387     2.0235 C       5      r5     0.1301
   2811 C            8.5144     9.1368     1.4486 C       5      r5    -0.0307
   2812 C            9.3121     9.0013     0.2995 C       5      r5    -0.0310
   2813 C            9.7832    10.3589     0.2206 C       5      r5     0.1102
   2814 O            9.3398    11.3448     1.3149 O       5      r5    -0.4731
   2815 C           10.6091    10.4040    -0.7565 C       0      r0    -0.0255
   2816 H            8.4560    15.2476     3.8571 H       0      r0     0.0729
   2817 H            9.1629    13.0260     2.5403 H       0      r0     0.0913
   2818 H            7.5646     9.7703     3.7188 H       0      r0     0.0448
   2819 H           10.4696    17.3756     6.4170 H       0      r0     0.0769
   2820 H            9.2326    15.3282     5.6303 H       0      r0     0.0680
   2821 H            6.3900    13.8016     6.9231 H       0      r0     0.1283
   2822 H            7.9561     8.3408     1.8717 H       0      r0     0.0374
   2823 H            9.3947     8.1252    -0.3550 H       0      r0     0.0756
   2824 H           10.8073     9.5701    -1.4342 H       0      r0     0.0898
   2825 H           11.0866    11.3459    -0.9936 H       0      r0     0.0740
   2826 C           -2.6278    10.0482     9.0352 C       5      r5     0.1443
   2827 O           -2.5656    11.4568     8.7182 O       5      r5    -0.4923
   2828 C           -1.5822    11.8430     9.7172 C       5      r5     0.1198
   2829 C           -0.9924    10.8518    10.4561 C       5      r5    -0.0330
   2830 C           -1.6867     9.6916    10.0540 C       5      r5     0.0071
   2831 C           -3.3615     9.1701     8.2938 C       0      r0     0.0090
   2832 C           -0.2153    13.5670    11.0325 C       0      r0     0.1273
   2833 O            0.8638    14.5277    11.0498 O       0      r0    -0.4822
   2834 C            0.9409    13.9212    13.7029 C       0      r0     0.0136
   2835 C           -0.1186    13.0515    13.4114 C       0      r0    -0.0321
   2836 C           -0.7251    12.8536    12.0743 C       0      r0    -0.0226
   2837 C           -0.9469    13.1489     9.9010 C       0      r0     0.0050
   2838 C           -3.3328     7.7472     8.5346 C       5      r5     0.1310
   2839 C           -4.0833     6.9338     7.6906 C       5      r5    -0.0152
   2840 C           -3.7743     5.6465     8.0989 C       5      r5    -0.0090
   2841 C           -2.9035     5.5791     9.2688 C       5      r5     0.0835
   2842 O           -2.5153     7.1389     9.5271 O       5      r5    -0.4836
   2843 C           -2.4249     4.6164     9.8354 C       0      r0    -0.0435
   2844 H           -0.1765    10.9205    11.1435 H       0      r0     0.0362
   2845 H           -1.5324     8.6798    10.4218 H       0      r0     0.1103
   2846 H           -3.9603     9.6114     7.4816 H       0      r0     0.0560
   2847 H           -0.5259    12.6089    14.2792 H       0      r0     0.0633
   2848 H           -1.6207    12.3197    12.0099 H       0      r0     0.0579
   2849 H           -0.9891    13.9299     9.1941 H       0      r0     0.0973
   2850 H           -4.7245     7.2650     6.8669 H       0      r0     0.0693
   2851 H           -4.0942     4.7428     7.5774 H       0      r0     0.0704
   2852 H           -2.6253     3.6253     9.4353 H       0      r0     0.0706
   2853 H           -1.8096     4.5505    10.7014 H       0      r0     0.0466
   2854 C            6.7132   -17.5434    12.9675 C       5      r5     0.1098
   2855 O            5.9440   -18.8475    12.7265 O       5      r5    -0.4605
   2856 C            7.0621    18.2378    12.6205 C       5      r5     0.1260
   2857 C            8.3554    18.7794    12.7157 C       5      r5    -0.0358
   2858 C            8.1245   -17.8047    12.9446 C       5      r5    -0.0146
   2859 C            6.2642   -16.2951    13.1506 C       0      r0    -0.0281
   2860 C            6.9871    16.8341    12.2377 C       0      r0    -0.0122
   2861 H            9.2680    18.3028    12.6218 H       0      r0     0.0391
   2862 H            8.9532   -17.0519    12.9343 H       0      r0     0.1239
   2863 H            6.2429   -15.3008    13.3438 H       0      r0     0.0595
   2864 H            7.9079    16.2302    12.1498 H       0      r0     0.0569
   2865 C            3.1650    18.1254    -4.3931 C       5      r5     0.1077
   2866 O            4.3737    17.9854    -5.3517 O       5      r5    -0.4589
   2867 C            4.1110    16.6726    -5.7807 C       5      r5     0.1261
   2868 C            2.9800    16.0148    -5.2979 C       5      r5    -0.0305
   2869 C            2.3771    16.8806    -4.4362 C       5      r5    -0.0162
   2870 C            2.8293   -18.7528    -3.6527 C       0      r0    -0.0214
   2871 C            4.9602    15.8514    -6.6723 C       0      r0    -0.0216
   2872 H            2.7266    15.0245    -5.6010 H       0      r0     0.0475
   2873 H            1.4613    16.6989    -3.8707 H       0      r0     0.1134
   2874 H            2.3465   -18.0523    -2.9709 H       0      r0     0.0422
   2875 H            4.7043    14.8176    -6.9539 H       0      r0     0.0535
   2876 C            8.8058   -17.3345    -0.9763 C       5      r5     0.1594
   2877 O            8.2283   -17.8221     0.2678 O       5      r5    -0.4796
   2878 C            6.9336   -18.1629    -0.3053 C       5      r5     0.1263
   2879 C            6.7056   -18.0705    -1.6276 C       5      r5    -0.0282
   2880 C            7.9027   -17.4772    -2.1053 C       5      r5    -0.0059
   2881 C           10.0010   -16.7885    -1.0872 C       0      r0     0.1491
   2882 C            5.8658   -18.6519     0.5273 C       0      r0    -0.0225
   2883 H            5.8611   -18.4030    -2.1854 H       0      r0     0.0448
   2884 H            8.0129   -17.1064    -3.0972 H       0      r0     0.0785
   2885 H           10.6553   -16.7509    -0.2510 H       0      r0     0.0923
   2886 H            5.9996   -18.7695     1.5759 H       0      r0     0.0491
   2887 C            3.9820     2.6703   -13.9966 C       5      r5     0.1274
   2888 O            3.0877     2.0797   -13.1255 O       5      r5    -0.4813
   2889 C            3.6539     2.7096   -11.8055 C       5      r5     0.1005
   2890 C            4.7930     3.5588   -12.1800 C       5      r5    -0.0200
   2891 C            4.9040     3.6018   -13.5407 C       5      r5    -0.0201
   2892 C            3.9421     2.5455   -15.5098 C       0      r0    -0.0177
   2893 C            3.1746     2.6763   -10.5720 C       0      r0    -0.0320
   2894 H            5.3973     4.1271   -11.5055 H       0      r0     0.0603
   2895 H            5.5757     4.1097   -14.2039 H       0      r0     0.0615
   2896 H            4.8347     2.8039   -16.1159 H       0      r0     0.0606
   2897 H            3.0367     2.8966    -9.5106 H       0      r0     0.0537
   2898 C           -2.4812    13.1586     2.2778 C       6      r6    -0.0461
   2899 C           -2.9071    11.9309     2.6113 C       6      r6    -0.0554
   2900 C           -2.1755    10.6477     2.3854 C       6      r6     0.0820
   2901 C           -1.1595    10.6480     1.2425 C       6      r6     0.1269
   2902 C            0.7151    12.2891     1.2991 C       5      r5     0.1583
   2903 O            0.8558    13.4797     2.0369 O       5      r5    -0.4898
   2904 C           -0.3400    14.2154     1.5995 C       5      r5     0.1198
   2905 C           -1.4484    13.3337     1.2164 C       6      r6    -0.0245
   2906 C           -0.6578    12.0264     0.7355 C       6      r6    -0.0001
   2907 C           -0.5076    15.5173     1.5465 C       0      r0     0.0132
   2908 C           -3.3087    14.3210     2.9049 C       0      r0    -0.0272
   2909 C           -1.5194     9.7769    -0.1176 C       0      r0    -0.0261
   2910 C            1.7614    11.3861     1.0944 C       0      r0     0.0155
   2911 O           -0.7439    10.0800     2.4281 O       3      r3    -0.4784
   2912 C           -3.7952    17.1650     0.6622 C       5      r5     0.2240
   2913 C           -3.2936    16.3855    -0.5158 C       5      r5     0.0024
   2914 C           -2.0911    15.8545    -0.2463 C       5      r5    -0.0185
   2915 C           -1.7469    16.2334     1.0511 C       5      r5     0.1345
   2916 O           -2.4690    17.1453     1.7478 O       5      r5    -0.4661
   2917 O            0.8575    10.5594    -1.0597 O       5      r5    -0.5036
   2918 C            1.7199    10.4307     0.0202 C       5      r5     0.1265
   2919 C            2.8418     9.5527    -0.1351 C       5      r5    -0.0301
   2920 C            2.7583     8.8328    -1.3533 C       5      r5    -0.0165
   2921 C            1.5881     9.4118    -1.8650 C       5      r5     0.1012
   2922 O           -4.3854    14.2578     5.2153 O       5      r5    -0.4608
   2923 C           -3.6687    13.6845     6.5868 C       5      r5     0.0956
   2924 C           -2.3695    13.1090     6.2505 C       5      r5    -0.0134
   2925 C           -2.1513    13.3743     4.9244 C       5      r5    -0.0301
   2926 C           -3.3549    13.9455     4.4756 C       5      r5     0.1378
   2927 C           -2.4951     8.6163     0.0628 C       5      r5     0.1371
   2928 C           -3.5779     8.6204    -0.7845 C       5      r5    -0.0311
   2929 C           -4.3106     7.5275    -0.4954 C       5      r5    -0.0168
   2930 C           -3.7065     6.7332     0.6435 C       5      r5     0.0893
   2931 O           -2.2843     7.6088     0.9179 O       5      r5    -0.4640
   2932 C           -4.1683    13.7806     7.6906 C       0      r0    -0.0113
   2933 C            1.3324     8.8410    -3.0052 C       0      r0    -0.0294
   2934 H           -3.7694    11.8911     3.2371 H       0      r0     0.0489
   2935 H           -2.7282     9.6999     2.5717 H       0      r0     0.1065
   2936 H           -2.0685    13.8531     0.5178 H       0      r0     0.0430
   2937 H           -0.4601    11.9403    -0.3618 H       0      r0     0.0794
   2938 H            0.3033    16.1816     1.8132 H       0      r0     0.1304
   2939 H           -2.9293    15.3494     2.6786 H       0      r0     0.1021
   2940 H           -4.3554    14.2873     2.6986 H       0      r0     0.1233
   2941 H           -1.7871    10.4636    -0.9985 H       0      r0     0.0298
   2942 H           -0.4972     9.3433    -0.2961 H       0      r0     0.1108
   2943 H            2.5594    11.5664     1.7561 H       0      r0     0.0739
   2944 H           -3.7368    16.2921    -1.4807 H       0      r0     0.0658
   2945 H           -1.4472    15.3358    -0.8697 H       0      r0     0.0689
   2946 H            3.6348     9.4859     0.5804 H       0      r0     0.0532
   2947 H            3.4304     8.0564    -1.6932 H       0      r0     0.1296
   2948 H           -1.7023    12.6074     6.9735 H       0      r0     0.0948
   2949 H           -1.3235    13.0585     4.3790 H       0      r0     0.0652
   2950 H           -3.8084     9.3237    -1.5593 H       0      r0     0.0325
   2951 H           -5.1993     7.3179    -0.9734 H       0      r0     0.0681
   2952 H           -3.7021    13.4019     8.5781 H       0      r0     0.0880
   2953 H           -5.1110    14.2774     7.9629 H       0      r0     0.1171
   2954 H            1.9902     8.0161    -3.3489 H       0      r0     0.0893
   2955 H            0.4622     9.0585    -3.5498 H       0      r0     0.0571
   2956 C           -9.1219     4.9947     2.1566 C       6      r6     0.0828
   2957 C           -9.4337     4.8562     0.7626 C       6      r6    -0.0183
   2958 C           -9.9292     3.6437     0.7642 C       6      r6    -0.0150
   2959 C           -9.9269     3.0497     2.2188 C       6      r6     0.1517
   2960 C           -8.2985     2.2040     4.0050 C       5      r5     0.1801
   2961 O           -7.9708     3.2188     4.8469 O       5      r5    -0.4651
   2962 C           -7.4430     4.2294     3.9427 C       5      r5     0.1286
   2963 C           -7.8725     4.1251     2.4988 C       6      r6    -0.0069
   2964 C           -8.4678     2.6773     2.5997 C       6      r6     0.0284
   2965 C           -6.6571     5.2158     4.4072 C       0      r0     0.0031
   2966 C           -9.1614     6.4844     2.6230 C       0      r0    -0.0120
   2967 C          -10.8826     1.6764     2.0955 C       0      r0    -0.0197
   2968 C           -8.3889     0.8872     4.3182 C       0      r0     0.0237
   2969 O          -10.2218     3.9895     3.0941 O       5      r5    -0.4538
   2970 C           -4.3214     7.6450     2.9944 C       5      r5     0.1363
   2971 C           -4.4406     6.7174     1.9065 C       5      r5     0.0261
   2972 C           -5.3697     5.7558     2.4138 C       5      r5    -0.0156
   2973 C           -5.8805     6.1973     3.6634 C       5      r5     0.1428
   2974 O           -5.3828     7.3120     4.2204 O       5      r5    -0.4705
   2975 O           -8.0522    -0.0991     2.0042 O       5      r5    -0.5017
   2976 C           -8.4185    -0.1561     3.3295 C       5      r5     0.1370
   2977 C           -8.9828    -1.3522     3.7994 C       5      r5    -0.0097
   2978 C           -9.1450    -2.2963     2.7914 C       5      r5    -0.0320
   2979 C           -8.5636    -1.5526     1.7029 C       5      r5     0.0917
   2980 O           -8.0066     7.2427     0.4195 O       5      r5    -0.4757
   2981 C           -7.2445     8.7187     0.1549 C       5      r5     0.0678
   2982 C           -7.2042     9.2830     1.4863 C       5      r5    -0.0314
   2983 C           -7.8819     8.5079     2.3958 C       5      r5    -0.0153
   2984 C           -8.2603     7.3812     1.7285 C       5      r5     0.1403
   2985 C          -12.2829     1.9936     1.5262 C       5      r5     0.1387
   2986 C          -13.2738     1.7140     2.4442 C       5      r5    -0.0203
   2987 C          -14.4290     2.0130     1.8218 C       5      r5    -0.0367
   2988 C          -14.1564     2.4886     0.4785 C       5      r5     0.1065
   2989 O          -12.6247     2.4842     0.3181 O       5      r5    -0.4927
   2990 C           -6.9774     9.1306    -0.9503 C       0      r0    -0.0484
   2991 C           -8.5325    -2.2787     0.6775 C       0      r0    -0.0600
   2992 H           -9.3706     5.5141    -0.1708 H       0      r0     0.0789
   2993 H          -10.3599     3.0212    -0.0450 H       0      r0     0.0834
   2994 H           -7.0503     4.2780     1.7488 H       0      r0     0.0288
   2995 H           -7.9632     2.0854     1.8502 H       0      r0     0.0649
   2996 H           -6.6633     5.1910     5.4584 H       0      r0     0.0810
   2997 H          -10.1936     6.7100     2.6575 H       0      r0     0.1037
   2998 H           -9.0644     6.6182     3.7054 H       0      r0     0.0565
   2999 H          -10.3977     0.9179     1.5024 H       0      r0     0.0575
   3000 H          -11.0112     1.1385     2.9817 H       0      r0     0.0606
   3001 H           -8.4016     0.6585     5.3920 H       0      r0     0.0813
   3002 H           -3.4905     5.6878     0.4662 H       0      r0     0.1139
   3003 H           -5.7058     4.8355     2.0249 H       0      r0     0.0312
   3004 H           -9.2332    -1.5690     4.8688 H       0      r0     0.1126
   3005 H           -9.4957    -3.3267     2.8248 H       0      r0     0.0859
   3006 H           -6.6415    10.1578     1.6681 H       0      r0     0.0341
   3007 H           -8.0093     8.7142     3.4205 H       0      r0     0.0610
   3008 H          -13.1166     1.3657     3.4764 H       0      r0     0.1070
   3009 H          -15.4694     1.9407     2.1438 H       0      r0     0.0355
   3010 H           -6.5512    10.1119    -1.0165 H       0      r0     0.0356
   3011 H           -7.0702     8.6004    -1.8459 H       0      r0     0.0583
   3012 H           -8.9115    -3.2806     0.6404 H       0      r0     0.0267
   3013 H           -8.0915    -1.9249    -0.2681 H       0      r0     0.0444
   3014 C            2.9725    14.6761     5.0462 C       6      r6     0.1166
   3015 C            2.2420    13.3570     5.2154 C       6      r6    -0.0054
   3016 C            2.7716    12.2230     4.6078 C       6      r6    -0.0161
   3017 C            3.9734    12.4226     3.7538 C       6      r6    -0.0072
   3018 C            5.2343    14.3530     2.3436 C       5      r5     0.1746
   3019 O            5.3155    15.5927     2.9036 O       5      r5    -0.5137
   3020 C            3.9302    16.0303     3.1132 C       5      r5     0.1403
   3021 C            3.0242    14.8737     3.4251 C       6      r6     0.0139
   3022 C            3.9819    13.6465     2.7743 C       6      r6     0.0175
   3023 C            3.5130    17.3020     2.9264 C       0      r0     0.0110
   3024 C            2.0714    15.7579     5.5746 C       0      r0     0.0242
   3025 C            4.7722    11.3105     3.6976 C       0      r0    -0.0080
   3026 C            6.1002    13.8505     1.4089 C       0      r0     0.0286
   3027 O            4.2666    14.8946     5.7038 O       0      r0    -0.5768
   3028 C            0.1842    18.5243     3.5981 C       5      r5     0.1140
   3029 C            1.0173   -18.2542     3.5263 C       5      r5    -0.0158
   3030 C            2.3127   -18.6649     3.1658 C       5      r5    -0.0108
   3031 C            2.2001    17.9148     3.0873 C       5      r5     0.1322
   3032 O            0.9533    17.2108     3.3458 O       5      r5    -0.5006
   3033 O            4.9682    11.7606     0.6947 O       0      r0    -0.5832
   3034 C            5.9535    12.6911     0.5363 C       0      r0     0.1492
   3035 C            7.0462    12.8186    -0.2675 C       0      r0     0.0121
   3036 C            7.2401    12.0191    -1.5246 C       0      r0    -0.0204
   3037 C            6.5195    10.9015    -1.8339 C       0      r0    -0.0233
   3038 O            0.5316    15.1601     7.2559 O       0      r0    -0.4869
   3039 C            1.4764    14.9648     9.8823 C       0      r0     0.1686
   3040 C            2.6972    15.3197     9.2581 C       0      r0    -0.0182
   3041 C            2.8440    15.5332     7.8125 C       0      r0     0.0180
   3042 C            1.7653    15.4965     7.0218 C       0      r0     0.1835
   3043 C            4.9253    10.2177     4.6646 C       3      r3     0.0016
   3044 C            5.3278     9.8678     5.9234 C       3      r3    -0.0062
   3045 C            6.3108     7.9574     5.5815 C       0      r0     0.0079
   3046 C            7.6178     8.3239     6.4448 C       0      r0     0.1452
   3047 O            8.2019     7.2290     7.0503 O       0      r0    -0.5883
   3048 C            7.9582     9.4821     6.6295 C       0      r0     0.0085
   3049 C           -1.0955    18.6443     3.7383 C       0      r0    -0.0013
   3050 H            1.4685    13.2556     5.9576 H       0      r0     0.0836
   3051 H            2.4259    11.1776     4.7999 H       0      r0     0.1227
   3052 H            2.1066    15.0482     2.9000 H       0      r0     0.1117
   3053 H            3.5713    13.0595     1.9582 H       0      r0     0.0924
   3054 H            4.3673    17.8455     2.5979 H       0      r0     0.0612
   3055 H            2.4892    16.7823     5.4374 H       0      r0     0.1312
   3056 H            1.1514    15.9291     4.9299 H       0      r0     0.1076
   3057 H            4.5442    11.6541    -0.2410 H       0      r0     0.2486
   3058 H            5.4726    11.2880     2.8278 H       0      r0     0.1043
   3059 H            6.9116    14.5888     1.3574 H       0      r0     0.0861
   3060 H            0.6407   -17.2124     3.6610 H       0      r0     0.0683
   3061 H            3.1711   -18.0821     3.0470 H       0      r0     0.0457
   3062 H            7.7008    13.6607    -0.0978 H       0      r0     0.0975
   3063 H            8.0508    12.2051    -2.2969 H       0      r0     0.0650
   3064 H            3.5322    15.5089     9.8895 H       0      r0     0.0537
   3065 H            3.7781    15.7330     7.3692 H       0      r0     0.1351
   3066 H            5.7383    10.2594     6.8601 H       0      r0     0.1082
   3067 H            1.6718     4.0200     3.5477 H       0      r0     0.1327
   3068 H            7.4699    10.3877     6.2745 H       0      r0     0.1071
   3069 H            8.8461     9.7177     7.1946 H       0      r0     0.1017
   3070 H           -1.4546   -18.2456     3.8540 H       0      r0     0.0614
   3071 H           -1.6604    17.7850     3.8588 H       0      r0     0.1059
   3072 C            1.3717     6.7363     3.0143 C       6      r6     0.0625
   3073 C            0.5930     7.4526     1.9654 C       6      r6    -0.0114
   3074 C            0.3191     6.9015     0.7060 C       6      r6    -0.0196
   3075 C            1.0496     5.8070     0.2355 C       6      r6    -0.0211
   3076 C            2.3995     4.1963     0.5828 C       5      r5     0.1604
   3077 O            2.0075     3.4698     1.5731 O       5      r5    -0.4719
   3078 C            2.4926     4.4607     2.9407 C       5      r5     0.0801
   3079 C            2.4014     5.8156     2.4359 C       6      r6    -0.0064
   3080 C            2.3403     5.6404     0.8377 C       6      r6    -0.0077
   3081 C            3.7908     4.1247     3.6464 C       0      r0     0.0036
   3082 C            2.1406     7.8062     3.8446 C       0      r0    -0.0075
   3083 C            0.7213     5.1913    -1.1228 C       0      r0    -0.0260
   3084 C            3.3463     3.7272    -0.4690 C       0      r0     0.0078
   3085 O            0.3515     5.7353     4.0357 O       0      r0    -0.5082
   3086 C            5.9506     6.7510     4.9851 C       5      r5     0.1003
   3087 C            6.7319     5.6162     5.1623 C       5      r5    -0.0220
   3088 C            5.9614     4.6082     4.5599 C       5      r5    -0.0160
   3089 C            4.6965     5.0112     4.0585 C       5      r5     0.1252
   3090 O            4.5804     6.4350     4.1046 O       5      r5    -0.5022
   3091 O            3.6236     5.9617    -1.5006 O       5      r5    -0.4851
   3092 C            3.8889     4.6490    -1.3614 C       5      r5     0.1336
   3093 C            4.7305     3.8554    -2.1598 C       5      r5    -0.0225
   3094 C            5.3406     4.7483    -3.1174 C       5      r5    -0.0219
   3095 C            4.6615     6.0345    -2.9331 C       5      r5     0.1722
   3096 O            1.9405     9.4446     5.6541 O       5      r5    -0.4675
   3097 C            0.4967    10.0923     6.3433 C       5      r5     0.1095
   3098 C           -0.5977     9.3809     5.7528 C       5      r5     0.0015
   3099 C           -0.1140     8.4657     4.7803 C       5      r5     0.0332
   3100 C            1.2716     8.6529     4.8120 C       5      r5     0.1679
   3101 C           -0.5091     4.2542    -0.9322 C       5      r5     0.1386
   3102 C           -0.1789     2.9857    -0.5900 C       5      r5    -0.0152
   3103 C           -1.3430     2.3981    -0.1087 C       5      r5    -0.0271
   3104 C           -2.4367     3.2971    -0.4144 C       5      r5     0.0923
   3105 O           -1.8183     4.6585    -0.9242 O       5      r5    -0.4585
   3106 C           -3.7156     2.9661    -0.2874 C       0      r0    -0.0495
   3107 C            5.3066     8.8171     4.9563 C       3      r3     0.0015
   3108 H           -0.0088     8.3194     2.1163 H       0      r0     0.1383
   3109 H           -0.5270     7.2015     0.1104 H       0      r0     0.1228
   3110 H            3.3971     6.2355     2.5909 H       0      r0     0.0912
   3111 H            3.1617     6.1884     0.3006 H       0      r0     0.1066
   3112 H            4.0214     3.0804     3.7249 H       0      r0     0.0832
   3113 H            2.9863     7.2861     4.2769 H       0      r0     0.1308
   3114 H            2.6610     8.6073     3.2793 H       0      r0     0.0527
   3115 H            0.4386     5.9071    -1.9417 H       0      r0     0.0909
   3116 H            1.6123     4.7660    -1.5796 H       0      r0     0.0734
   3117 H            3.7409     2.7334    -0.3980 H       0      r0     0.1228
   3118 H            7.6756     5.5791     5.6828 H       0      r0     0.0807
   3119 H            6.2948     3.5457     4.4520 H       0      r0     0.0933
   3120 H            5.0276     2.8200    -2.0022 H       0      r0     0.0644
   3121 H            6.0482     4.4579    -3.8583 H       0      r0     0.0641
   3122 H           -1.6341     9.4002     5.9848 H       0      r0     0.0623
   3123 H           -0.5893     7.6901     4.1750 H       0      r0     0.1229
   3124 H            0.7796     2.5467    -0.5821 H       0      r0     0.0657
   3125 H           -1.4051     1.3409     0.2384 H       0      r0     0.0599
   3126 H           -3.9016     1.9199     0.0110 H       0      r0     0.0494
   3127 H           -4.5658     3.5648    -0.5650 H       0      r0     0.0621
   3128 H            4.8558    15.2614     4.9780 H       0      r0     0.3149
   3129 H            9.1405     7.0307     6.6386 H       0      r0     0.3392
   3130 C           -6.0184    15.5412    18.0792 C       0      r0     0.1716
   3131 C           -6.3661    15.8344    16.7072 C       0      r0    -0.0194
   3132 C           -7.5516    16.3086    16.2142 C       0      r0    -0.0095
   3133 C           -8.7608    16.7198    16.7560 C       0      r0     0.1568
   3134 C           -9.8833    17.1591    15.8924 C       0      r0     0.0096
   3135 O           -9.0064    16.8371    18.0575 O       0      r0    -0.5070
   3136 O           -4.9212    15.4253    18.4886 O       0      r0    -0.5208
   3137 C           -9.4580    17.9765    14.6811 C       5      r5     0.1436
   3138 C          -10.2038    17.8563    13.5352 C       5      r5    -0.0032
   3139 C           -9.6091    18.7117    12.6314 C       5      r5    -0.0155
   3140 C           -8.4223   -18.6367    13.2654 C       5      r5     0.0980
   3141 O           -8.3644    18.8432    14.7300 O       5      r5    -0.4739
   3142 C           -7.6655   -17.7534    12.6933 C       0      r0    -0.0544
   3143 C           -7.2551    15.2089   -18.3574 C       0      r0     0.0090
   3144 C           -7.4071    12.1362   -16.3029 C       5      r5     0.1109
   3145 C           -6.0505    12.2323   -16.6200 C       5      r5    -0.0271
   3146 C           -5.8823    13.4931   -17.3485 C       5      r5    -0.0178
   3147 C           -7.0948    13.9374   -17.5666 C       5      r5     0.1280
   3148 O           -8.3170    13.3944   -16.9596 O       5      r5    -0.4685
   3149 H           -5.5861    15.7980    15.9943 H       0      r0     0.0644
   3150 H           -7.6734    16.3283    15.0721 H       0      r0     0.0697
   3151 H          -10.6540    16.3567    15.6521 H       0      r0     0.0996
   3152 H          -10.4671    17.7659    16.5723 H       0      r0     0.1175
   3153 H          -11.0889    17.3242    13.4232 H       0      r0     0.0586
   3154 H          -10.0438   -18.8782    11.7116 H       0      r0     0.0732
   3155 H           -7.7460   -17.3900    11.6925 H       0      r0     0.0259
   3156 H           -6.9070   -17.4203    13.3518 H       0      r0     0.0613
   3157 H           -7.5244    16.1154   -17.7793 H       0      r0     0.0907
   3158 H           -8.1744    15.0842    18.4429 H       0      r0     0.1042
   3159 H           -5.3125    11.5019   -16.3922 H       0      r0     0.0549
   3160 H           -4.9683    14.0096   -17.6920 H       0      r0     0.0966
   3161 C           -5.6255     0.0243    -1.0268 C       0      r0     0.1579
   3162 C           -5.4431    -0.3807     0.3519 C       0      r0    -0.0379
   3163 C           -4.3548    -0.8145     1.0131 C       0      r0    -0.0263
   3164 C           -3.0319    -1.1754     0.4879 C       0      r0     0.1759
   3165 C           -2.7823    -1.2997    -1.0747 C       0      r0     0.0444
   3166 O           -2.1764    -1.5948     1.1711 O       0      r0    -0.4660
   3167 O           -4.7724     0.1783    -1.8177 O       0      r0    -0.4891
   3168 C           -3.6459    -2.4626    -1.6184 C       5      r5     0.1729
   3169 C           -4.2915    -3.2521    -0.6820 C       5      r5    -0.0131
   3170 C           -4.7399    -4.3548    -1.4312 C       5      r5    -0.0227
   3171 C           -4.4134    -4.1389    -2.8200 C       5      r5     0.0880
   3172 O           -3.6491    -2.6652    -2.9380 O       5      r5    -0.4660
   3173 C           -4.7096    -4.9676    -3.7677 C       0      r0    -0.0341
   3174 C           -7.0972     0.4518    -1.3619 C       0      r0    -0.0066
   3175 C           -8.6756    -2.2628    -4.5796 C       0      r0     0.1515
   3176 C           -7.6061    -2.5392    -3.7022 C       0      r0    -0.0417
   3177 C           -7.0529    -1.4919    -2.7924 C       0      r0    -0.0184
   3178 C           -7.7320    -0.4212    -2.4041 C       0      r0     0.1338
   3179 O           -9.0304    -0.1089    -2.6659 O       0      r0    -0.5822
   3180 H           -6.3824    -0.3114     0.9873 H       0      r0     0.0935
   3181 H           -4.5189    -0.9891     2.0276 H       0      r0     0.0599
   3182 H           -2.9507    -0.3248    -1.5923 H       0      r0     0.1280
   3183 H           -1.7378    -1.3724    -1.3924 H       0      r0     0.1134
   3184 H           -4.4344    -3.0538     0.3658 H       0      r0     0.0475
   3185 H           -5.3129    -5.1502    -1.0255 H       0      r0     0.0603
   3186 H           -5.2380    -5.8193    -3.3369 H       0      r0     0.0584
   3187 H           -4.3976    -4.9028    -4.8176 H       0      r0     0.0762
   3188 H           -7.8579     0.4224    -0.5318 H       0      r0     0.0718
   3189 H           -7.2737     1.4989    -1.4878 H       0      r0     0.0607
   3190 H           -7.0809    -3.4969    -3.7566 H       0      r0     0.0453
   3191 H           -6.0669    -1.7250    -2.4617 H       0      r0     0.0996
   3192 C          -12.6512    -6.0008   -17.1167 C       5      r5     0.1148
   3193 O          -13.0754    -5.2051   -18.2810 O       5      r5    -0.4904
   3194 C          -11.7461    -4.9715    18.5944 C       5      r5     0.1093
   3195 C          -10.7147    -5.5320   -17.9982 C       5      r5    -0.0172
   3196 C          -11.3058    -6.1853   -16.8825 C       5      r5     0.0045
   3197 C          -13.6090    -6.5698   -16.2094 C       0      r0    -0.0089
   3198 C          -10.1333    -4.0376    16.9818 C       5      r5     0.1191
   3199 O           -9.7492    -4.2105    15.6901 O       5      r5    -0.4950
   3200 C           -8.1471    -3.7617    15.9965 C       5      r5     0.1984
   3201 C           -8.1355    -3.2558    17.4468 C       5      r5    -0.0318
   3202 C           -9.3028    -3.4823    18.0016 C       5      r5    -0.0483
   3203 C          -11.4990    -4.3733    17.4216 C       0      r0    -0.0123
   3204 C          -13.2346    -7.4697   -15.1703 C       5      r5     0.1182
   3205 C          -14.4775    -7.9287   -14.7165 C       5      r5    -0.0502
   3206 C          -14.0475    -8.6944   -13.5814 C       5      r5    -0.0476
   3207 C          -12.5993    -8.7423   -13.5557 C       5      r5     0.0801
   3208 O          -11.9399    -7.8464   -14.6810 O       5      r5    -0.4926
   3209 C          -12.2138    -9.4789   -12.6532 C       0      r0    -0.0376
   3210 H           -9.6242    -5.5162   -18.2373 H       0      r0     0.0628
   3211 H          -10.8602    -6.7226   -16.0565 H       0      r0     0.1401
   3212 H          -14.6975    -6.3829   -16.3171 H       0      r0     0.0812
   3213 H           -7.2678    -2.7956    17.9024 H       0      r0     0.0405
   3214 H           -9.5380    -3.2676   -18.4173 H       0      r0     0.0364
   3215 H          -12.3077    -4.1406    16.7544 H       0      r0     0.0513
   3216 H          -15.4679    -7.7453   -15.0978 H       0      r0     0.0389
   3217 H          -14.7325    -9.2037   -12.8344 H       0      r0     0.0520
   3218 H          -12.9968    -9.9249   -11.9562 H       0      r0     0.1138
   3219 H          -11.1397    -9.5926   -12.4839 H       0      r0     0.0771
   3220 C           14.4783     1.6893    16.3670 C       5      r5     0.1501
   3221 O           14.6784     0.2707    16.3986 O       5      r5    -0.4818
   3222 C           16.1483     0.3327    16.7360 C       5      r5     0.1139
   3223 C           16.7248     1.5851    16.9394 C       5      r5    -0.0239
   3224 C           15.6234     2.4430    16.7717 C       5      r5     0.0099
   3225 C           13.2234     2.2542    16.0608 C       0      r0     0.0243
   3226 C           18.1371    -0.9098    17.6236 C       0      r0     0.1268
   3227 O          -18.3180    -1.9271    17.3188 O       0      r0    -0.5541
   3228 C          -16.3444    -0.4008    18.5480 C       0      r0     0.0018
   3229 C          -17.4257     0.3123   -18.4349 C       0      r0    -0.0261
   3230 C           18.5154     0.0631    18.5034 C       0      r0    -0.0382
   3231 C           16.8213    -0.8473    16.9946 C       0      r0     0.0009
   3232 C           12.9440     3.6457    16.0140 C       5      r5     0.1402
   3233 C           11.5443     4.0104    15.9097 C       5      r5    -0.0113
   3234 C           11.3456     5.3934    16.0995 C       5      r5    -0.0322
   3235 C           12.7034     5.7638    16.3211 C       5      r5     0.1044
   3236 O           13.8777     4.6461    16.1969 O       5      r5    -0.4541
   3237 C           12.7281     7.0284    16.4729 C       0      r0    -0.0316
   3238 H           17.7312     1.8177    17.2582 H       0      r0     0.0447
   3239 H           15.5412     3.5047    17.0368 H       0      r0     0.1274
   3240 H           12.3805     1.6387    15.8262 H       0      r0     0.0835
   3241 H          -17.2251     1.2155   -17.8668 H       0      r0     0.0716
   3242 H           17.7335     0.6974   -18.5936 H       0      r0     0.0362
   3243 H           16.3727    -1.7877    16.6981 H       0      r0     0.0664
   3244 H           10.7273     3.3502    15.7195 H       0      r0     0.1323
   3245 H           10.4256     5.9563    16.0989 H       0      r0     0.0682
   3246 H           11.8636     7.5885    16.3121 H       0      r0     0.0464
   3247 H           13.6733     7.5339    16.6989 H       0      r0     0.0693
   3248 C           -4.0224     0.9554   -11.0053 C       5      r5     0.1080
   3249 O           -4.9637     0.9928    -9.8062 O       5      r5    -0.4882
   3250 C           -4.2025     1.9484    -9.1073 C       5      r5     0.1405
   3251 C           -2.9971     2.3901    -9.7490 C       5      r5    -0.0233
   3252 C           -2.8185     1.7545   -10.9812 C       5      r5    -0.0320
   3253 C           -3.9932     0.2328   -12.0956 C       0      r0    -0.0431
   3254 C           -4.4726     2.4663    -7.8980 C       0      r0     0.1503
   3255 H           -2.3273     3.1460    -9.2969 H       0      r0     0.1166
   3256 H           -2.0696     1.8895   -11.7207 H       0      r0     0.0445
   3257 H           -3.7166    -0.2727   -13.0271 H       0      r0     0.0436
   3258 H           -3.8810     3.2326    -7.4062 H       0      r0     0.0996
   3259 C           -1.1552     0.2888   -15.0097 C       0      r0     0.0927
   3260 O           -2.1592     0.6742   -16.2368 O       0      r0    -0.4641
   3261 C           -3.0302    -0.7742   -15.9153 C       0      r0     0.0805
   3262 C           -2.6377    -1.5945   -14.7728 C       0      r0    -0.0356
   3263 C           -1.5546    -0.8862   -14.2118 C       0      r0    -0.0338
   3264 C           -0.0457     0.9530   -14.6616 C       0      r0    -0.0432
   3265 C           -3.9699    -1.2151   -16.6986 C       0      r0    -0.0420
   3266 H           -3.0889    -2.5193   -14.3433 H       0      r0     0.0631
   3267 H           -0.9753    -1.1497   -13.3529 H       0      r0     0.0534
   3268 H            0.8733     1.0948   -14.1002 H       0      r0     0.0638
   3269 H           -4.7685    -1.4593   -17.4359 H       0      r0     0.0338
   3270 C          -10.9331   -14.4331     1.0558 C       5      r5     0.1095
   3271 O          -10.8204   -12.8564     1.0981 O       5      r5    -0.4712
   3272 C          -12.2050   -12.6327     1.1769 C       5      r5     0.1339
   3273 C          -13.1059   -13.6880     0.9973 C       5      r5    -0.0242
   3274 C          -12.3616   -14.7897     0.8589 C       5      r5    -0.0118
   3275 C           -9.9525   -15.2795     1.0071 C       0      r0    -0.0224
   3276 C          -12.8127   -11.3492     1.5529 C       0      r0    -0.0237
   3277 H          -14.1906   -13.6129     0.9454 H       0      r0     0.0421
   3278 H          -12.7777   -15.7911     0.7139 H       0      r0     0.0810
   3279 H           -9.3268   -16.1264     0.8713 H       0      r0     0.0450
   3280 H          -13.8508   -11.1229     1.7670 H       0      r0     0.0483
   3281 C           -2.6412    -5.9738     4.2247 C       5      r5     0.1290
   3282 O           -1.1464    -6.0276     4.0823 O       5      r5    -0.4980
   3283 C           -1.0823    -5.0065     2.9629 C       5      r5     0.1393
   3284 C           -2.3573    -4.5130     2.4414 C       5      r5    -0.0054
   3285 C           -3.2888    -5.1925     3.1441 C       5      r5    -0.0510
   3286 C           -3.3667    -6.4668     5.1974 C       0      r0     0.1412
   3287 C            0.0305    -4.5112     2.3699 C       0      r0     0.0359
   3288 H           -2.5705    -3.8051     1.7217 H       0      r0     0.1061
   3289 H           -4.3596    -5.2495     3.0411 H       0      r0     0.0207
   3290 H           -4.4540    -6.2840     5.2036 H       0      r0     0.0646
   3291 H            0.6147    -3.9661     1.6889 H       0      r0     0.0898
   3292 C           -9.5798    17.8695    -4.6495 C       5      r5     0.1713
   3293 O           -8.6344    17.2253    -5.3878 O       5      r5    -0.4680
   3294 C           -7.7262    16.9390    -4.0848 C       5      r5     0.0973
   3295 C           -8.2147    17.3844    -2.7956 C       5      r5    -0.0344
   3296 C           -9.3836    18.0295    -3.2074 C       5      r5    -0.0373
   3297 C          -10.7492    18.4943    -4.8338 C       0      r0     0.1477
   3298 C           -6.6027    16.3613    -3.8984 C       0      r0    -0.0126
   3299 H           -7.6865    17.2942    -1.8639 H       0      r0     0.0645
   3300 H          -10.1054    18.4515    -2.4900 H       0      r0     0.0537
   3301 H          -11.3363    18.8472    -4.0261 H       0      r0     0.1100
   3302 H           -5.6509    15.8557    -3.9451 H       0      r0     0.0713
   3303 C           11.7725    -4.1437     9.5329 C       6      r6     0.0895
   3304 C           10.5117    -4.1959    10.4147 C       6      r6    -0.0315
   3305 C           10.1801    -5.4226    10.7201 C       6      r6    -0.0276
   3306 C           11.2103    -6.1418     9.9320 C       6      r6     0.1084
   3307 C           11.7893    -6.6509     7.3886 C       5      r5     0.1588
   3308 O           12.8931    -5.8703     6.9273 O       5      r5    -0.4747
   3309 C           12.4538    -4.5335     7.1123 C       5      r5     0.1507
   3310 C           11.3101    -4.3837     8.1264 C       6      r6     0.0041
   3311 C           10.8777    -5.9164     8.3486 C       6      r6     0.0304
   3312 C           12.9616    -3.5802     6.3779 C       0      r0     0.0370
   3313 C           12.6126    -2.8860     9.8003 C       0      r0    -0.0196
   3314 C           11.3349    -7.6629    10.2937 C       0      r0    -0.0017
   3315 C           11.5962    -7.9650     7.1201 C       0      r0    -0.0027
   3316 O           12.5715    -5.4353     9.9970 O       5      r5    -0.5125
   3317 C           12.6838    -0.0302     5.6706 C       5      r5     0.2103
   3318 C           11.4370    -0.3275     6.5385 C       5      r5    -0.0287
   3319 C           11.3985    -1.6564     6.8304 C       5      r5    -0.0344
   3320 C           12.5951    -2.1828     6.2613 C       5      r5     0.1340
   3321 O           13.4539    -1.4198     5.4653 O       5      r5    -0.4656
   3322 O            9.4663    -8.3984     8.3835 O       5      r5    -0.4987
   3323 C           10.4898    -8.8214     7.4854 C       5      r5     0.1140
   3324 C           10.5294   -10.1334     7.0668 C       5      r5    -0.0195
   3325 C            9.4153   -10.7404     7.6218 C       5      r5    -0.0251
   3326 C            8.6566    -9.8131     8.4817 C       5      r5     0.0914
   3327 O           13.1589    -1.4001    11.8051 O       5      r5    -0.4759
   3328 C           13.4517    -1.8651    13.2922 C       5      r5     0.0945
   3329 C           13.3005    -3.3198    13.4046 C       5      r5    -0.0299
   3330 C           12.9833    -3.7741    12.1068 C       5      r5    -0.0040
   3331 C           12.9211    -2.6656    11.3385 C       5      r5     0.1357
   3332 C           11.2806    -7.9237    11.8227 C       5      r5     0.1455
   3333 C           12.3129    -7.4421    12.6092 C       5      r5    -0.0189
   3334 C           12.1182    -7.9081    13.8559 C       5      r5    -0.0298
   3335 C           10.7478    -8.5556    13.9800 C       5      r5     0.0643
   3336 O           10.2699    -8.5524    12.3673 O       5      r5    -0.4718
   3337 C           13.7208    -1.2098    14.3026 C       0      r0    -0.0173
   3338 C            7.6547   -10.1201     9.0812 C       0      r0    -0.0267
   3339 H            9.9230    -3.3130    10.6699 H       0      r0     0.0527
   3340 H            9.4119    -5.9109    11.2926 H       0      r0     0.0625
   3341 H           10.5542    -3.6694     7.8243 H       0      r0     0.0498
   3342 H            9.8228    -6.1303     8.2324 H       0      r0     0.0774
   3343 H           13.7653    -3.9256     5.7576 H       0      r0     0.1133
   3344 H           13.4349    -2.7892     9.1293 H       0      r0     0.0612
   3345 H           12.0985    -2.0285     9.3830 H       0      r0     0.0442
   3346 H           10.6400    -8.3002     9.7637 H       0      r0     0.1303
   3347 H           12.2875    -7.9821     9.9184 H       0      r0     0.0622
   3348 H           12.3846    -8.2687     6.3798 H       0      r0     0.0617
   3349 H           10.7281     0.3435     6.8909 H       0      r0     0.0543
   3350 H           10.6307    -2.1825     7.3357 H       0      r0     0.0450
   3351 H           11.2063   -10.6415     6.3965 H       0      r0     0.1095
   3352 H            9.1081   -11.7836     7.4167 H       0      r0     0.0425
   3353 H           13.4009    -3.9356    14.2928 H       0      r0     0.0457
   3354 H           12.7839    -4.8171    11.7997 H       0      r0     0.1003
   3355 H           13.2038    -6.9350    12.2477 H       0      r0     0.0608
   3356 H           12.8161    -7.7210    14.6837 H       0      r0     0.1195
   3357 H           13.7847    -1.6570    15.2550 H       0      r0     0.0616
   3358 H           13.8524    -0.1748    14.2995 H       0      r0     0.1040
   3359 H            7.3486   -11.1292     8.9055 H       0      r0     0.0558
   3360 H            7.0378    -9.5208     9.7550 H       0      r0     0.0609
   3361 C           10.4474   -13.9524    12.2254 C       6      r6     0.0743
   3362 C           11.0267   -13.7233    10.9055 C       6      r6    -0.0475
   3363 C           11.3077   -14.9206    10.5074 C       6      r6    -0.0342
   3364 C           11.1704   -15.8987    11.7335 C       6      r6     0.1201
   3365 C           12.4269   -16.2550    13.9507 C       5      r5     0.1608
   3366 O           11.7684   -15.7108    15.0614 O       5      r5    -0.4609
   3367 C           11.6097   -14.3198    14.7107 C       5      r5     0.1381
   3368 C           11.7521   -13.9910    13.2291 C       6      r6    -0.0018
   3369 C           12.3445   -15.4356    12.6872 C       6      r6     0.0263
   3370 C           11.3386   -13.3703    15.5739 C       0      r0     0.0202
   3371 C            9.4140   -12.7742    12.4369 C       0      r0    -0.0226
   3372 C           11.5901   -17.3346    11.2703 C       0      r0    -0.0089
   3373 C           13.2161   -17.3853    14.0312 C       0      r0     0.0035
   3374 O            9.9596   -15.5972    12.3829 O       5      r5    -0.4740
   3375 C           10.6898    -9.9432    16.2088 C       5      r5     0.0988
   3376 C           10.8917    -9.8025    14.7965 C       5      r5    -0.0063
   3377 C           11.2136   -11.1517    14.4037 C       5      r5    -0.0280
   3378 C           11.2047   -11.9551    15.5421 C       5      r5     0.1215
   3379 O           10.8670   -11.4255    16.7708 O       5      r5    -0.4642
   3380 O           14.3141   -17.2553    11.8548 O       5      r5    -0.4912
   3381 C           14.0820   -17.9140    13.0444 C       5      r5     0.1211
   3382 C           14.7836    18.7939    13.3074 C       5      r5    -0.0211
   3383 C           15.6505    18.4530    12.2480 C       5      r5    -0.0213
   3384 C           15.4216   -18.3611    11.4107 C       5      r5     0.0973
   3385 O            7.0853   -12.1147    11.6467 O       5      r5    -0.4588
   3386 C            6.2896   -12.6355    10.3957 C       5      r5     0.0927
   3387 C            6.9466   -13.8216     9.9213 C       5      r5    -0.0170
   3388 C            8.1344   -13.9514    10.6116 C       5      r5    -0.0036
   3389 C            8.1812   -12.9315    11.4935 C       5      r5     0.1415
   3390 C           10.7141   -18.0421    10.1685 C       0      r0     0.1710
   3391 C            9.2852   -17.7065    10.3524 C       0      r0    -0.0064
   3392 C            8.2270   -18.0948     9.5680 C       0      r0    -0.0060
   3393 C            8.6407    18.9506     8.6329 C       0      r0     0.0390
   3394 O           11.2341   -18.8483     9.5105 O       0      r0    -0.4598
   3395 C            5.1283   -12.1337     9.9671 C       0      r0    -0.0360
   3396 C           16.1466   -18.4561    10.3790 C       0      r0    -0.0287
   3397 H           11.1165   -12.8062    10.3103 H       0      r0     0.0382
   3398 H           11.7455   -15.2997     9.5754 H       0      r0     0.0385
   3399 H           12.4543   -13.1864    13.1034 H       0      r0     0.0358
   3400 H           13.2282   -15.4966    12.1172 H       0      r0     0.0919
   3401 H           11.3243   -13.8105    16.5394 H       0      r0     0.1032
   3402 H            9.1965   -12.7322    13.5309 H       0      r0     0.0686
   3403 H            9.7860   -11.7657    12.2079 H       0      r0     0.0607
   3404 H           12.6318   -17.4191    10.8873 H       0      r0     0.1268
   3405 H           11.5583   -18.0035    12.1677 H       0      r0     0.0587
   3406 H           13.1412   -17.8907    15.0070 H       0      r0     0.0627
   3407 H            9.9462    -8.0685    14.5624 H       0      r0     0.0777
   3408 H           11.4541   -11.3757    13.4204 H       0      r0     0.0413
   3409 H           14.6000    18.1439    14.1719 H       0      r0     0.0994
   3410 H           16.3398    17.6066    12.2341 H       0      r0     0.0976
   3411 H            6.6800   -14.4885     9.0976 H       0      r0     0.0998
   3412 H            8.8668   -14.7150    10.4141 H       0      r0     0.0872
   3413 H            9.0759   -17.0304    11.1743 H       0      r0     0.0867
   3414 H            7.1578   -17.8200     9.5731 H       0      r0     0.0830
   3415 H            4.6037   -12.5323     9.1242 H       0      r0     0.0650
   3416 H            4.7080   -11.3080    10.3867 H       0      r0     0.0581
   3417 H           16.8214    18.6270    10.1515 H       0      r0     0.0935
   3418 H           16.0206   -17.7530     9.5330 H       0      r0     0.0749
   3419 C           16.9259    -0.9770    10.8441 C       6      r6     0.1284
   3420 C           18.1865    -1.8418    10.6564 C       6      r6    -0.0016
   3421 C           18.2782    -3.1205    10.9216 C       6      r6    -0.0282
   3422 C           16.9720    -3.5777    11.2553 C       6      r6    -0.0339
   3423 C           15.8957    -3.6521     8.9472 C       5      r5     0.1417
   3424 O           16.1083    -2.5727     8.0816 O       5      r5    -0.4844
   3425 C           15.5623    -1.4771     8.6911 C       5      r5     0.1580
   3426 C           15.7032    -1.5657    10.2046 C       6      r6     0.0154
   3427 C           15.7205    -3.1751    10.4077 C       6      r6    -0.0229
   3428 C           14.9699    -0.4306     8.0787 C       0      r0     0.0185
   3429 C           16.5954    -0.9610    12.4328 C       0      r0    -0.0120
   3430 C           16.8742    -4.6697    12.1921 C       0      r0    -0.0173
   3431 C           15.8645    -4.9032     8.5179 C       0      r0     0.0233
   3432 O           17.1518     0.3312    10.2727 O       0      r0    -0.5734
   3433 C           13.8128     2.3848    10.0269 C       5      r5     0.1183
   3434 C           13.3668     2.8147     8.7376 C       5      r5    -0.0115
   3435 C           13.8209     1.7071     7.9727 C       5      r5    -0.0082
   3436 C           14.4771     0.7569     8.7380 C       5      r5     0.1304
   3437 O           14.5660     0.9916    10.1100 O       5      r5    -0.4964
   3438 O           15.0099    -6.0013    10.5565 O       0      r0    -0.5804
   3439 C           15.4753    -6.0155     9.2945 C       0      r0     0.1593
   3440 C           15.6110    -7.0231     8.3999 C       0      r0    -0.0108
   3441 C           15.3346    -8.4486     8.7642 C       0      r0    -0.0167
   3442 C           15.1618    -9.0226    10.0019 C       0      r0    -0.0042
   3443 O           18.1130     0.8442    13.3513 O       5      r5    -0.4488
   3444 C          -17.7954     0.5165    14.3992 C       5      r5     0.0743
   3445 C          -17.5685    -0.8271    14.5239 C       5      r5    -0.0240
   3446 C          -18.6204    -1.4096    13.7513 C       5      r5    -0.0059
   3447 C           17.8470    -0.4649    13.1660 C       5      r5     0.1532
   3448 C           17.9776    -5.0667    12.9368 C       6      r6     0.1295
   3449 C           17.4773    -6.2827    13.5146 C       6      r6    -0.0270
   3450 C          -17.6046    -6.3678    14.7569 C       6      r6     0.0085
   3451 C          -17.2424    -4.9718    14.2743 C       6      r6     0.1126
   3452 O          -18.0718    -4.4276    13.0782 O       6      r6    -0.4872
   3453 C          -16.2824    -4.4413    14.9537 C       0      r0    -0.0298
   3454 C           13.4463     3.3092    10.8732 C       0      r0    -0.0359
   3455 H          -18.2200    -1.3019    10.2821 H       0      r0     0.0979
   3456 H          -18.0638    -3.6880    10.9273 H       0      r0     0.0869
   3457 H           14.8640    -1.0101    10.7349 H       0      r0     0.1384
   3458 H           14.8606    -3.6550    10.8465 H       0      r0     0.0739
   3459 H           14.9656    -0.4915     6.9922 H       0      r0     0.1098
   3460 H           15.9135    -0.1610    12.7452 H       0      r0     0.1014
   3461 H           16.2162    -1.9351    12.7317 H       0      r0     0.0359
   3462 H           13.9203    -5.9269    10.5534 H       0      r0     0.3453
   3463 H           15.9360    -5.1900    12.1495 H       0      r0     0.0957
   3464 H           15.9820    -4.8820     7.4346 H       0      r0     0.1332
   3465 H           12.9280     3.6857     8.3502 H       0      r0     0.0849
   3466 H           13.6393     1.6489     6.8824 H       0      r0     0.1116
   3467 H           15.9145    -6.8976     7.3736 H       0      r0     0.0639
   3468 H           15.1637    -9.2308     7.9876 H       0      r0     0.0976
   3469 H          -16.8626    -1.2219    15.2585 H       0      r0     0.0533
   3470 H           18.5057    -2.4573    13.7463 H       0      r0     0.0965
   3471 H           16.6091    -6.9050    13.2382 H       0      r0     0.0573
   3472 H           16.3692    -8.9077   -17.1776 H       0      r0     0.3438
   3473 H          -15.7457    -4.9177    15.8072 H       0      r0     0.0327
   3474 H          -15.9726    -3.4550    14.7256 H       0      r0     0.0607
   3475 H           12.8272     4.1805    10.5913 H       0      r0     0.0548
   3476 H           13.7480     3.3256    11.9032 H       0      r0     0.0604
   3477 C           16.4300    -9.7569    18.4160 C       6      r6     0.1576
   3478 C           14.9516    -9.9151    17.9243 C       6      r6    -0.0068
   3479 C           14.3451   -11.0168    17.8025 C       6      r6    -0.0282
   3480 C           15.3071   -12.0514    18.2160 C       6      r6     0.0042
   3481 C           17.5507   -13.0784    18.0166 C       5      r5     0.1594
   3482 O           18.5742   -12.3645    18.6362 O       5      r5    -0.4460
   3483 C           18.6137   -11.1261    17.9433 C       5      r5     0.1639
   3484 C           17.2644   -10.7260    17.4075 C       6      r6     0.0068
   3485 C           16.5134   -12.1995    17.4264 C       6      r6     0.0071
   3486 C          -17.5485   -10.3281    17.7958 C       0      r0     0.0047
   3487 C           16.9616    -8.2449    18.1650 C       0      r0     0.0025
   3488 C           15.0776   -12.9846   -17.9952 C       0      r0    -0.0047
   3489 C           17.4549   -14.4552    18.0041 C       0      r0     0.0201
   3490 O           16.6162    -9.9492   -17.6638 O       0      r0    -0.5186
   3491 C          -17.2601    -7.5169    15.5558 C       5      r5     0.0969
   3492 C          -15.9960    -7.5492    16.1440 C       5      r5    -0.0457
   3493 C          -16.0836    -8.5817    17.0590 C       5      r5    -0.0407
   3494 C          -17.4211    -9.2078    16.9485 C       5      r5     0.1213
   3495 O          -18.2795    -8.6880    16.0334 O       5      r5    -0.4758
   3496 O           15.5802   -14.5964    16.4127 O       5      r5    -0.4753
   3497 C           16.4713   -15.2022    17.2703 C       5      r5     0.1262
   3498 C           16.4515   -16.6086    17.4952 C       5      r5    -0.0195
   3499 C           15.4131   -17.1704    16.6921 C       5      r5    -0.0338
   3500 C           14.8929   -16.0989    15.9481 C       5      r5     0.0964
   3501 O           15.8103    -7.5772   -17.2672 O       0      r0    -0.5141
   3502 C           15.2017    -4.8178   -16.9470 C       0      r0     0.2044
   3503 C           15.7821    -4.8237   -18.2211 C       0      r0    -0.0169
   3504 C           16.3708    -5.9602    18.5311 C       0      r0    -0.0086
   3505 C           16.3074    -7.2351   -18.3618 C       0      r0     0.1805
   3506 C           13.5702   -13.4634   -18.0354 C       5      r5     0.1549
   3507 C           13.3615   -14.5060    18.5715 C       5      r5     0.0042
   3508 C           11.9285   -14.7250    18.6590 C       5      r5     0.0029
   3509 C           11.4326   -13.7261   -17.8337 C       5      r5     0.1180
   3510 O           12.6306   -12.7532   -17.3389 O       5      r5    -0.4713
   3511 C           10.2176   -13.8683   -17.6784 C       0      r0    -0.0150
   3512 C           18.4586    -6.6775    14.2954 C       6      r6     0.0204
   3513 H           14.4521    -9.0272    17.6478 H       0      r0     0.0858
   3514 H           13.3403   -11.0709    17.4216 H       0      r0     0.0850
   3515 H           17.4557   -10.2501    16.4901 H       0      r0     0.0713
   3516 H           16.3795   -12.3755    16.3344 H       0      r0     0.0703
   3517 H          -16.7156   -10.7492    18.3727 H       0      r0     0.0745
   3518 H           18.0737    -8.2299    18.2973 H       0      r0     0.0745
   3519 H           16.8883    -7.9581    17.0977 H       0      r0     0.0660
   3520 H           15.8804   -13.7746   -18.1477 H       0      r0     0.0719
   3521 H           15.2913   -12.4091   -17.0913 H       0      r0     0.0962
   3522 H           18.2812   -14.9497    18.4983 H       0      r0     0.0870
   3523 H          -15.2358    -6.8580    15.9245 H       0      r0     0.0354
   3524 H          -15.2739    -8.9386    17.6549 H       0      r0     0.0438
   3525 H           17.0290   -17.1630    18.1915 H       0      r0     0.0776
   3526 H           15.0721   -18.1414    16.5760 H       0      r0     0.0544
   3527 H           15.9114    -3.8726    18.6703 H       0      r0     0.0362
   3528 H           16.8837    -5.7863    17.5919 H       0      r0     0.0456
   3529 H           14.0911   -15.0256    17.9571 H       0      r0     0.0980
   3530 H           11.4288   -15.5314    18.2314 H       0      r0     0.0845
   3531 H            9.6695   -14.6875   -18.2052 H       0      r0     0.0755
   3532 H            9.6051   -13.2436   -17.0303 H       0      r0     0.0597
   3533 H           16.2330     0.6839    10.2320 H       0      r0     0.3582
   3534 H          -17.3200    -1.6183    17.5392 H       0      r0     0.2374
   3535 C            8.7370     2.0849     9.3147 C       0      r0     0.2229
   3536 C           10.0477     1.4598     9.7186 C       0      r0     0.0084
   3537 C           10.3007     0.7801    10.8083 C       0      r0    -0.0217
   3538 C            9.2181     0.1883    11.5672 C       0      r0     0.1786
   3539 C            9.8555    -0.6306    12.8212 C       0      r0     0.0041
   3540 O            8.0892     0.0527    11.3226 O       0      r0    -0.4716
   3541 O            8.3010     2.0924     8.2381 O       0      r0    -0.4735
   3542 C            9.2458    -2.0723    12.9872 C       5      r5     0.1503
   3543 C            8.0748    -2.3767    12.3220 C       5      r5    -0.0085
   3544 C            7.9261    -3.7595    12.5263 C       5      r5    -0.0329
   3545 C            8.9966    -4.2250    13.3649 C       5      r5     0.0762
   3546 O            9.9505    -2.9049    13.7408 O       5      r5    -0.4741
   3547 C            9.1954    -5.4339    13.7512 C       0      r0    -0.0388
   3548 C            7.9824     2.8590    10.4556 C       0      r0     0.0079
   3549 C           10.5639     5.4456    11.3617 C       5      r5     0.0918
   3550 C            9.8193     5.1605    12.5363 C       5      r5    -0.0276
   3551 C            8.9172     4.1419    12.2868 C       5      r5    -0.0250
   3552 C            9.0659     3.8547    10.9629 C       5      r5     0.1334
   3553 O           10.0543     4.4131    10.2236 O       5      r5    -0.4834
   3554 H           10.9895     1.5421     9.2043 H       0      r0     0.0559
   3555 H           11.3147     0.6211    11.0353 H       0      r0     0.0702
   3556 H           10.9511    -0.5782    12.7834 H       0      r0     0.0814
   3557 H            9.8618    -0.0527    13.7452 H       0      r0     0.0836
   3558 H            7.3986    -1.7428    11.7706 H       0      r0     0.1118
   3559 H            7.1130    -4.3975    12.1206 H       0      r0     0.1125
   3560 H            8.5225    -6.2061    13.4505 H       0      r0     0.0646
   3561 H            9.9699    -5.6575    14.3765 H       0      r0     0.0576
   3562 H            7.0186     3.3627    10.1066 H       0      r0     0.0639
   3563 H            7.5743     2.1763    11.1499 H       0      r0     0.0957
   3564 H            9.9669     5.7630    13.4628 H       0      r0     0.0649
   3565 H            8.2382     3.7096    13.0077 H       0      r0     0.0571
   3566 C           12.4285     3.1773   -15.3323 C       0      r0     0.1669
   3567 C           11.3086     2.6915   -14.5910 C       0      r0    -0.0348
   3568 C           11.2837     1.9458   -13.4370 C       0      r0    -0.0199
   3569 C           12.3435     1.4437   -12.6495 C       0      r0     0.1559
   3570 C           13.7813     1.4644   -12.9108 C       0      r0     0.0198
   3571 O           12.0592     0.7646   -11.5863 O       0      r0    -0.4985
   3572 O           13.4940     3.4794   -14.9062 O       0      r0    -0.4953
   3573 C           14.4180     0.1222   -13.3072 C       5      r5     0.1559
   3574 C           14.4007    -0.8810   -12.3194 C       5      r5    -0.0120
   3575 C           15.0833    -1.9190   -12.8774 C       5      r5    -0.0110
   3576 C           15.4489    -1.5178   -14.2510 C       5      r5     0.1059
   3577 O           14.9614    -0.0072   -14.5482 O       5      r5    -0.4590
   3578 C           16.0984    -2.1755   -15.0529 C       0      r0    -0.0049
   3579 C           12.1291     3.5655   -16.8255 C       0      r0     0.0045
   3580 C           12.2217    -0.3907    18.5366 C       0      r0     0.0251
   3581 C           13.0779     0.1361   -17.8294 C       0      r0    -0.0025
   3582 C           12.9913     1.4477   -17.2616 C       0      r0     0.0156
   3583 C           11.9115     2.2646   -17.4615 C       0      r0     0.1694
   3584 O           10.7959     2.1905   -18.1035 O       0      r0    -0.4811
   3585 H           10.3726     2.7710   -15.1018 H       0      r0     0.0340
   3586 H           10.2570     1.8359   -13.0781 H       0      r0     0.0457
   3587 H           14.0432     2.3274   -13.6859 H       0      r0     0.1403
   3588 H           14.3634     1.7929   -12.0199 H       0      r0     0.0497
   3589 H           14.0105    -0.8618   -11.3527 H       0      r0     0.0689
   3590 H           15.4103    -2.8206   -12.4497 H       0      r0     0.1146
   3591 H           16.6102    -3.1435   -14.8919 H       0      r0     0.1345
   3592 H           16.2721    -1.7393   -15.9872 H       0      r0     0.0580
   3593 H           11.3795     4.3351   -17.0634 H       0      r0     0.0614
   3594 H           13.0264     4.1212   -17.1521 H       0      r0     0.0750
   3595 H           13.8878    -0.6094   -17.7969 H       0      r0     0.0679
   3596 H           13.8959     1.7666   -16.6988 H       0      r0     0.0965
   3597 C            5.7619    -5.1168    16.2305 C       5      r5     0.1603
   3598 O            5.5243    -3.8087    16.7527 O       5      r5    -0.4916
   3599 C            6.9472    -3.4220    16.9962 C       5      r5     0.1075
   3600 C            7.9300    -4.3821    16.6427 C       5      r5    -0.0261
   3601 C            7.1813    -5.4595    16.2262 C       5      r5     0.0133
   3602 C            4.7830    -5.9872    15.8137 C       0      r0     0.0278
   3603 C            8.5277    -1.7047    17.7885 C       0      r0     0.1310
   3604 O            8.8754    -0.8289   -18.5075 O       0      r0    -0.4833
   3605 C           11.4163    -0.9459    17.5507 C       0      r0     0.0106
   3606 C           10.6501    -1.4691    16.5474 C       0      r0    -0.0234
   3607 C            9.3106    -1.9597    16.6736 C       0      r0    -0.0162
   3608 C            7.2891    -2.3268    17.8124 C       0      r0     0.0213
   3609 C            5.1273    -7.3315    15.4760 C       5      r5     0.1603
   3610 C            4.0472    -8.2522    15.2916 C       5      r5    -0.0010
   3611 C            4.5082    -9.4977    14.8625 C       5      r5    -0.0159
   3612 C            5.9229    -9.2481    14.8667 C       5      r5     0.1157
   3613 O            6.3883    -7.7554    15.3381 O       5      r5    -0.4701
   3614 C            6.5092   -10.3365    14.5437 C       0      r0    -0.0174
   3615 H            8.9569    -4.3671    16.8235 H       0      r0     0.0815
   3616 H            7.6161    -6.4136    16.0048 H       0      r0     0.1210
   3617 H            3.7134    -5.7647    15.7380 H       0      r0     0.0572
   3618 H           11.2243    -1.5635    15.6656 H       0      r0     0.0696
   3619 H            8.8261    -2.4868    15.8723 H       0      r0     0.0670
   3620 H            6.5297    -1.8033    18.4581 H       0      r0     0.1470
   3621 H            2.9764    -7.9728    15.2909 H       0      r0     0.0674
   3622 H            3.9866   -10.3656    14.5692 H       0      r0     0.0559
   3623 H            6.0137   -11.2009    14.2717 H       0      r0     0.0658
   3624 H            7.6220   -10.4761    14.4389 H       0      r0     0.0753
   3625 C           -6.9522   -11.5901    15.6462 C       5      r5     0.1688
   3626 O           -6.4681   -10.3172    15.5258 O       5      r5    -0.4596
   3627 C           -5.8554   -10.4290    14.1320 C       5      r5     0.1081
   3628 C           -5.9724   -11.6984    13.5224 C       5      r5    -0.0317
   3629 C           -6.6407   -12.4289    14.4998 C       5      r5     0.0116
   3630 C           -7.7533   -11.9934    16.7336 C       0      r0     0.0100
   3631 C           -5.0297    -9.2338    12.0993 C       5      r5     0.1227
   3632 O           -4.4723    -8.0673    11.7006 O       5      r5    -0.4858
   3633 C           -4.5031    -8.4775    10.1128 C       5      r5     0.0712
   3634 C           -4.9325    -9.7931     9.8855 C       5      r5    -0.0441
   3635 C           -5.2694   -10.2810    11.1653 C       5      r5    -0.0369
   3636 C           -5.4047    -9.2915    13.4789 C       0      r0     0.0068
   3637 C           -8.2487   -13.3057    16.8509 C       5      r5     0.1215
   3638 C           -8.9533   -13.6579    18.0420 C       5      r5    -0.0201
   3639 C           -9.3540   -15.0078    18.0427 C       5      r5    -0.0247
   3640 C           -8.7759   -15.4004    16.7849 C       5      r5     0.0912
   3641 O           -8.0139   -14.2604    15.9132 O       5      r5    -0.4842
   3642 C           -8.9839   -16.6650    16.6036 C       0      r0    -0.0224
   3643 H           -5.5790   -12.0209    12.6220 H       0      r0     0.0412
   3644 H           -6.8287   -13.5168    14.4177 H       0      r0     0.1086
   3645 H           -7.9397   -11.2987    17.5298 H       0      r0     0.0573
   3646 H           -5.0357   -10.3121     8.9729 H       0      r0     0.0421
   3647 H           -5.7451   -11.2253    11.3403 H       0      r0     0.0429
   3648 H           -5.3012    -8.3423    14.0189 H       0      r0     0.0906
   3649 H           -9.1524   -12.9030   -18.6157 H       0      r0     0.0926
   3650 H           -9.8339   -15.5010   -18.4968 H       0      r0     0.0775
   3651 H           -9.5316   -17.2828    17.2400 H       0      r0     0.0577
   3652 H           -8.7176   -17.1317    15.6303 H       0      r0     0.1164
   3653 C            2.1069   -16.0342     9.9151 C       5      r5     0.1317
   3654 O            1.5336   -17.3598    10.3080 O       5      r5    -0.4915
   3655 C            2.5034   -17.5260    11.4345 C       5      r5     0.1115
   3656 C            3.3456   -16.3715    11.6226 C       5      r5    -0.0245
   3657 C            3.0983   -15.3443    10.7170 C       5      r5    -0.0275
   3658 C            1.7824   -15.2333     8.9592 C       0      r0     0.1532
   3659 C            2.6133   -18.6475    12.2235 C       0      r0    -0.0222
   3660 H            4.0843   -16.3735    12.4228 H       0      r0     0.0568
   3661 H            3.6288   -14.4757    10.6796 H       0      r0     0.0597
   3662 H            2.2889   -14.2863     8.9044 H       0      r0     0.0974
   3663 H            3.2351    18.7991    12.9963 H       0      r0     0.0624
   3664 C           17.8166     4.0944   -12.2316 C       5      r5     0.1467
   3665 O          -18.0880     4.4134   -12.2871 O       5      r5    -0.4813
   3666 C          -18.2943     5.4477   -13.5122 C       5      r5     0.1040
   3667 C           17.5621     5.4876   -13.8761 C       5      r5    -0.0299
   3668 C           16.8366     4.6810   -13.0480 C       5      r5    -0.0196
   3669 C           17.3113     3.2024   -11.1810 C       0      r0    -0.0075
   3670 C          -17.4207     6.1796   -14.0781 C       0      r0    -0.0307
   3671 H           16.9986     6.0955   -14.6022 H       0      r0     0.0400
   3672 H           15.7787     4.4921   -13.0797 H       0      r0     0.0628
   3673 H           16.2434     3.1384   -11.1797 H       0      r0     0.0527
   3674 H          -16.6292     6.7739   -14.5031 H       0      r0     0.0421
   3675 C            1.7677   -11.8818    -7.6785 C       5      r5     0.0959
   3676 O            2.4587   -10.4524    -8.1516 O       5      r5    -0.4576
   3677 C            2.8256   -10.1691    -6.8848 C       5      r5     0.1450
   3678 C            2.5966   -11.0919    -5.8329 C       5      r5    -0.0278
   3679 C            1.8911   -12.2145    -6.3008 C       5      r5    -0.0360
   3680 C            1.0628   -12.7942    -8.2529 C       0      r0    -0.0296
   3681 C            3.6046    -9.0883    -6.4121 C       0      r0    -0.0048
   3682 H            2.8150   -10.8414    -4.8126 H       0      r0     0.0620
   3683 H            1.6352   -13.0832    -5.7554 H       0      r0     0.0524
   3684 H            0.5044   -13.6187    -8.5698 H       0      r0     0.0490
   3685 H            3.7246    -8.9314    -5.3324 H       0      r0     0.0829
   3686 C          -17.1801   -15.5445   -13.4106 C       5      r5     0.1124
   3687 O          -17.4777   -16.9416   -13.0112 O       5      r5    -0.4649
   3688 C          -18.4405   -16.5885   -12.0371 C       5      r5     0.1640
   3689 C           18.5619   -15.2406   -11.6178 C       5      r5    -0.0303
   3690 C          -17.8251   -14.5957   -12.4619 C       5      r5    -0.0378
   3691 C          -16.4449   -15.0981   -14.4359 C       0      r0    -0.0248
   3692 C           18.0852   -17.3385   -11.2091 C       0      r0     0.1760
   3693 H           17.9211   -14.7776   -10.8832 H       0      r0     0.1095
   3694 H          -17.7014   -13.5598   -12.4778 H       0      r0     0.0397
   3695 H          -15.8702   -14.4418   -15.0923 H       0      r0     0.1124
   3696 H           17.5468   -16.8945   -10.3563 H       0      r0     0.1089
   3697 C           -2.0159    17.8555    10.9372 C       5      r5     0.1375
   3698 O           -3.1813    18.3726    11.7061 O       5      r5    -0.4882
   3699 C           -2.4413    18.2931    13.0421 C       5      r5     0.1054
   3700 C           -1.1054    17.6909    12.9035 C       5      r5    -0.0232
   3701 C           -0.7644    17.4523    11.6137 C       5      r5    -0.0254
   3702 C           -1.8053    17.6553     9.6751 C       0      r0     0.1404
   3703 C           -2.7460    18.6247    14.2736 C       0      r0    -0.0273
   3704 H           -0.4623    17.4773    13.8185 H       0      r0     0.1152
   3705 H            0.1028    17.0236    11.2466 H       0      r0     0.0823
   3706 H           -0.9340    17.2065     9.1866 H       0      r0     0.1457
   3707 H           -2.8184    18.7856    15.2671 H       0      r0     0.0834
   3708 C           -7.4158     0.5912    10.1202 C       6      r6     0.1084
   3709 C           -8.4139    -0.3554     9.4063 C       6      r6    -0.0333
   3710 C           -7.8635    -1.3479     8.7459 C       6      r6    -0.0232
   3711 C           -6.4482    -0.9646     8.8968 C       6      r6     0.0805
   3712 C           -4.8261     0.8443     7.9630 C       5      r5     0.1435
   3713 O           -4.5131     1.8658     8.9044 O       5      r5    -0.4957
   3714 C           -5.7261     2.4377     9.2598 C       5      r5     0.1527
   3715 C           -6.9152     1.5586     9.0756 C       6      r6     0.0220
   3716 C           -6.2290     0.3471     8.1042 C       6      r6     0.0270
   3717 C           -5.7945     3.7652     9.6031 C       0      r0    -0.0067
   3718 C           -8.1925     1.2216    11.2970 C       0      r0    -0.0105
   3719 C           -5.4980    -2.0939     8.4404 C       0      r0    -0.0146
   3720 C           -3.9227     0.4245     7.0395 C       0      r0     0.0036
   3721 O           -6.2938    -0.2398    10.4738 O       5      r5    -0.4789
   3722 C           -8.3489     6.9612    11.5426 C       0      r0     0.1807
   3723 C           -7.6801     6.7800    10.4119 C       0      r0    -0.0002
   3724 C           -6.6327     5.6870    10.1099 C       0      r0    -0.0221
   3725 C           -7.0147     4.4310     9.8936 C       0      r0     0.1138
   3726 O           -8.2997     3.8055     9.9273 O       0      r0    -0.5109
   3727 O           -5.5314    -1.0447     5.8893 O       5      r5    -0.4757
   3728 C           -4.3060    -0.5027     6.0237 C       5      r5     0.1274
   3729 C           -3.2767    -0.9005     5.1058 C       5      r5    -0.0349
   3730 C           -3.6969    -1.9585     4.2767 C       5      r5    -0.0416
   3731 C           -5.0568    -2.0320     4.7046 C       5      r5     0.0885
   3732 O           -9.4564     0.4838    13.3931 O       5      r5    -0.4787
   3733 C           -9.5121    -0.9186    14.1611 C       5      r5     0.1004
   3734 C           -8.5207    -1.7545    13.4354 C       5      r5    -0.0210
   3735 C           -7.9875    -1.0489    12.3830 C       5      r5    -0.0015
   3736 C           -8.5639     0.2063    12.4192 C       5      r5     0.1477
   3737 C           -5.3921    -3.2240     9.5280 C       5      r5     0.1414
   3738 C           -6.0059    -4.4481     9.2772 C       5      r5    -0.0438
   3739 C           -5.5578    -5.3018    10.2161 C       5      r5    -0.0463
   3740 C           -4.7769    -4.4794    11.2223 C       5      r5     0.0953
   3741 O           -4.6142    -3.0438    10.5916 O       5      r5    -0.4674
   3742 C          -10.0237    -1.2757    15.1955 C       0      r0    -0.0293
   3743 C           -5.7098    -2.8426     4.0078 C       0      r0    -0.0540
   3744 H           -9.4612    -0.2323     9.5101 H       0      r0     0.0429
   3745 H           -8.3297    -2.1869     8.1690 H       0      r0     0.1141
   3746 H           -7.7769     2.1506     8.7343 H       0      r0     0.0907
   3747 H           -6.6515     0.3266     7.1615 H       0      r0     0.0939
   3748 H           -4.8634     4.2452     9.7559 H       0      r0     0.0517
   3749 H           -7.7598     2.0580    11.7768 H       0      r0     0.0720
   3750 H           -9.0474     1.7580    10.8537 H       0      r0     0.0737
   3751 H           -5.8403    -2.4565     7.4651 H       0      r0     0.0782
   3752 H           -4.5096    -1.6444     8.2202 H       0      r0     0.0665
   3753 H           -2.9062     0.8663     7.0331 H       0      r0     0.0720
   3754 H           -7.8717     7.5917     9.7550 H       0      r0     0.0586
   3755 H           -5.5707     5.9506     9.9493 H       0      r0     0.0583
   3756 H           -2.2542    -0.5790     5.1250 H       0      r0     0.0443
   3757 H           -3.1972    -2.5325     3.4788 H       0      r0     0.0604
   3758 H           -8.2994    -2.7664    13.6757 H       0      r0     0.0744
   3759 H           -7.2605    -1.4164    11.6547 H       0      r0     0.1192
   3760 H           -6.6696    -4.7475     8.5015 H       0      r0     0.0343
   3761 H           -5.7924    -6.3483    10.2902 H       0      r0     0.0508
   3762 H           -9.9192    -2.3316    15.4957 H       0      r0     0.0884
   3763 H          -10.6815    -0.7282    15.8201 H       0      r0     0.1023
   3764 H           -5.3429    -3.3681     3.1809 H       0      r0     0.0227
   3765 H           -6.7563    -3.1300     4.2907 H       0      r0     0.0621
   3766 C           -9.0195    -6.9038    11.1637 C       6      r6     0.0894
   3767 C           -8.7376    -7.5143     9.8384 C       6      r6    -0.0258
   3768 C           -9.5664    -8.5034     9.8356 C       6      r6    -0.0123
   3769 C          -10.3081    -8.6139    11.2066 C       6      r6     0.1440
   3770 C           -9.5353    -9.5588    13.5766 C       5      r5     0.1689
   3771 O           -9.5533    -8.4760    14.3957 O       5      r5    -0.4705
   3772 C           -8.7517    -7.4751    13.7190 C       5      r5     0.1551
   3773 C           -8.3962    -7.8508    12.3161 C       6      r6     0.0013
   3774 C           -9.1706    -9.1575    12.1704 C       6      r6     0.0246
   3775 C           -8.1062    -6.4955    14.4482 C       0      r0     0.0295
   3776 C           -8.7564    -5.3415    11.2970 C       0      r0    -0.0152
   3777 C          -11.5811    -9.6208    11.0959 C       0      r0    -0.0069
   3778 C           -9.8621   -10.8391    13.9731 C       0      r0     0.0098
   3779 O          -10.5329    -7.3489    11.6997 O       5      r5    -0.4237
   3780 C           -5.4307    -3.7191    13.7534 C       0      r0     0.1807
   3781 C           -5.5134    -4.5850    12.6278 C       0      r0     0.0209
   3782 C           -6.4785    -5.5722    12.9117 C       0      r0    -0.0237
   3783 C           -7.1541    -5.5100    14.1229 C       0      r0     0.1337
   3784 O           -6.8192    -4.5532    15.0877 O       0      r0    -0.4648
   3785 O           -9.6929   -12.0839    11.8739 O       5      r5    -0.4752
   3786 C           -9.8557   -12.0247    13.2016 C       5      r5     0.1319
   3787 C          -10.0714   -13.2736    13.9486 C       5      r5    -0.0099
   3788 C          -10.0284   -14.3698    13.1048 C       5      r5    -0.0318
   3789 C           -9.7721   -13.7185    11.8499 C       5      r5     0.0927
   3790 O          -10.2293    -4.7710     9.2874 O       5      r5    -0.4818
   3791 C          -11.5945    -4.0070     9.3659 C       5      r5     0.1084
   3792 C          -11.6412    -3.2568    10.5914 C       5      r5    -0.0122
   3793 C          -10.5425    -3.6166    11.3756 C       5      r5    -0.0118
   3794 C           -9.8462    -4.5049    10.5775 C       5      r5     0.1581
   3795 C          -12.7582    -9.1811    11.9872 C       0      r0     0.1447
   3796 C          -12.7704    -9.6514    13.1489 C       0      r0    -0.0035
   3797 C          -13.8057    -9.3800    14.3020 C       0      r0    -0.0275
   3798 C          -13.5204    -9.7482    15.5292 C       0      r0     0.1063
   3799 O          -13.8033    -8.1365    11.5579 O       0      r0    -0.4762
   3800 C          -12.5302    -3.9664     8.4630 C       0      r0    -0.0440
   3801 C           -9.7086   -14.6038    10.9477 C       0      r0    -0.0458
   3802 H           -8.0173    -7.1670     9.1178 H       0      r0     0.0413
   3803 H           -9.7498    -9.1893     9.0364 H       0      r0     0.0564
   3804 H           -7.3007    -7.9894    12.2187 H       0      r0     0.0368
   3805 H           -8.6197   -10.0144    11.7299 H       0      r0     0.0719
   3806 H           -8.4668    -6.3725    15.4411 H       0      r0     0.1197
   3807 H           -8.5522    -5.1613    12.3592 H       0      r0     0.0509
   3808 H           -7.8284    -5.0034    10.8679 H       0      r0     0.0404
   3809 H          -11.9067    -9.8692    10.1101 H       0      r0     0.0543
   3810 H          -11.4249   -10.5931    11.6651 H       0      r0     0.0646
   3811 H          -10.0776   -11.0159    14.9969 H       0      r0     0.0698
   3812 H           -3.7364    -4.7443    11.4222 H       0      r0     0.1125
   3813 H           -6.6577    -6.3267    12.1841 H       0      r0     0.0392
   3814 H          -10.2696   -13.3079    15.0230 H       0      r0     0.0716
   3815 H          -10.1458   -15.4075    13.4142 H       0      r0     0.0496
   3816 H          -12.2930    -2.4132    10.8501 H       0      r0     0.0720
   3817 H          -10.3161    -3.3356    12.3523 H       0      r0     0.0515
   3818 H          -11.8728   -10.2715    13.3722 H       0      r0     0.0524
   3819 H          -14.8328    -8.9687    14.1766 H       0      r0     0.0557
   3820 H          -13.3330    -3.2765     8.6571 H       0      r0     0.0412
   3821 H          -12.4339    -4.4476     7.4989 H       0      r0     0.0508
   3822 H           -9.7207   -15.6817    11.2195 H       0      r0     0.0312
   3823 H           -9.5321   -14.3741     9.8750 H       0      r0     0.1042
   3824 C            0.2528    -3.1729     7.6829 C       6      r6     0.1042
   3825 C           -1.2052    -2.7417     7.8818 C       6      r6    -0.0124
   3826 C           -2.1544    -3.5999     8.2038 C       6      r6    -0.0366
   3827 C           -1.6030    -4.8911     8.0644 C       6      r6    -0.0197
   3828 C           -0.0251    -6.5154     7.0283 C       5      r5     0.1572
   3829 O            1.3197    -6.2337     7.1088 O       5      r5    -0.5072
   3830 C            1.5005    -5.0600     6.4277 C       5      r5     0.1612
   3831 C            0.2534    -4.1991     6.5306 C       6      r6     0.0115
   3832 C           -0.8261    -5.3090     6.8676 C       6      r6     0.0095
   3833 C            2.5291    -4.7668     5.5477 C       0      r0     0.0197
   3834 C            0.9846    -1.8928     7.3985 C       0      r0     0.0101
   3835 C           -2.1021    -5.9128     9.0855 C       0      r0    -0.0386
   3836 C           -0.5745    -7.8091     6.8721 C       0      r0    -0.0034
   3837 O            0.9333    -3.8136     8.8995 O       0      r0    -0.6114
   3838 C            2.5893    -1.4526     3.8849 C       5      r5     0.0928
   3839 C            3.7324    -2.2484     3.4565 C       5      r5    -0.0280
   3840 C            3.8617    -3.4613     4.1038 C       5      r5    -0.0192
   3841 C            2.6644    -3.5116     4.8739 C       5      r5     0.1417
   3842 O            1.7597    -2.4802     4.8367 O       5      r5    -0.4809
   3843 O           -3.0027    -7.1035     6.3277 O       0      r0    -0.4993
   3844 C           -1.9255    -8.0732     6.5914 C       0      r0     0.1191
   3845 C           -2.0281    -9.4088     6.5555 C       0      r0    -0.0166
   3846 C           -3.2860   -10.1664     6.3007 C       0      r0    -0.0164
   3847 C           -4.5592    -9.6115     6.0780 C       0      r0     0.0084
   3848 O           -0.3300    -0.2561     8.3556 O       0      r0    -0.4862
   3849 C           -0.1274     0.6496    10.5985 C       0      r0     0.1368
   3850 C            1.0036    -0.1725    10.8424 C       0      r0    -0.0204
   3851 C            1.4181    -0.9149     9.7480 C       0      r0    -0.0009
   3852 C            0.6508    -0.9054     8.5453 C       0      r0     0.1829
   3853 C           -1.3886    -5.6473    10.4499 C       3      r3     0.0828
   3854 C           -1.7959    -6.4627    11.6033 C       3      r3    -0.0055
   3855 C            0.2519    -6.1523    12.0321 C       0      r0     0.0171
   3856 C            0.5050    -4.6546    11.9221 C       0      r0     0.1045
   3857 O           -0.6752    -4.1302    10.8936 O       0      r0    -0.5375
   3858 C            1.3775    -4.0358    12.4864 C       0      r0    -0.0241
   3859 C            2.3843    -0.2948     3.6006 C       0      r0    -0.0312
   3860 H           -1.4326    -1.7141     7.8265 H       0      r0     0.1155
   3861 H           -3.1326    -3.3567     8.5908 H       0      r0     0.0778
   3862 H            0.0134    -3.6035     5.6797 H       0      r0     0.0858
   3863 H           -1.4273    -5.4283     5.9688 H       0      r0     0.1256
   3864 H            3.3097    -5.5550     5.3709 H       0      r0     0.0946
   3865 H            2.0280    -2.0681     7.0140 H       0      r0     0.0770
   3866 H            0.5309    -1.3722     6.5586 H       0      r0     0.0916
   3867 H           -3.1637    -5.7297     9.3272 H       0      r0     0.0567
   3868 H           -1.9559    -6.9061     8.6589 H       0      r0     0.0652
   3869 H            0.1603    -8.5718     7.0532 H       0      r0     0.0652
   3870 H            4.4790    -1.8164     2.8000 H       0      r0     0.0415
   3871 H            4.6235    -4.2006     3.9102 H       0      r0     0.0701
   3872 H           -1.0827    -9.9571     6.7322 H       0      r0     0.0971
   3873 H           -3.3882   -11.2009     6.0169 H       0      r0     0.1104
   3874 H            1.4157    -0.2210    11.8290 H       0      r0     0.0484
   3875 H            2.3366    -1.4820     9.8197 H       0      r0     0.0562
   3876 H           -2.5932    -7.1702    11.7538 H       0      r0     0.1086
   3877 H            0.3253   -13.2504    15.5087 H       0      r0     0.3586
   3878 H            2.1075    -4.4314    13.1831 H       0      r0     0.0424
   3879 H            1.5364    -2.9802    12.2033 H       0      r0     0.0761
   3880 H            3.1013     0.2598     2.9898 H       0      r0     0.0767
   3881 H            1.5116     0.2762     3.9833 H       0      r0     0.0658
   3882 C           -0.0211   -11.0518    14.5102 C       6      r6     0.0625
   3883 C           -1.4280   -11.0858    15.0598 C       6      r6    -0.0289
   3884 C           -2.3998   -12.0148    14.7274 C       6      r6    -0.0317
   3885 C           -1.8417   -13.0307    13.9066 C       6      r6    -0.0013
   3886 C            0.1799   -13.6317    12.2380 C       5      r5     0.1564
   3887 O            1.4738   -13.0920    12.4014 O       5      r5    -0.4585
   3888 C            1.2443   -11.7068    12.4928 C       5      r5     0.1655
   3889 C           -0.0485   -11.3322    13.0868 C       6      r6     0.0160
   3890 C           -0.9222   -12.6416    12.7648 C       6      r6     0.0054
   3891 C            2.2038   -10.7896    12.1078 C       0      r0    -0.0003
   3892 C            0.6782    -9.8229    14.9974 C       0      r0    -0.0025
   3893 C           -2.2777   -14.5200    14.1572 C       0      r0    -0.0219
   3894 C           -0.1206   -14.8110    11.6498 C       0      r0     0.0149
   3895 O            0.9540   -12.4207    15.3274 O       0      r0    -0.5460
   3896 C            1.0625    -7.3738    12.1056 C       5      r5     0.1147
   3897 C            2.4717    -7.2803    11.7504 C       5      r5    -0.0276
   3898 C            3.0474    -8.5265    11.7530 C       5      r5    -0.0356
   3899 C            1.9676    -9.3841    12.0822 C       5      r5     0.0980
   3900 O            0.6917    -8.7545    12.3864 O       5      r5    -0.5041
   3901 O           -2.6023   -14.5898    11.3388 O       5      r5    -0.4933
   3902 C           -1.4579   -15.2799    11.3312 C       5      r5     0.1281
   3903 C           -1.4640   -16.6515    10.9242 C       5      r5    -0.0142
   3904 C           -2.7455   -17.0540    10.6184 C       5      r5    -0.0156
   3905 C           -3.5277   -15.9178    10.9075 C       5      r5     0.0692
   3906 O            1.6826    -9.3065    17.1104 O       0      r0    -0.4912
   3907 C            3.6715   -11.4408    17.7530 C       0      r0     0.1668
   3908 C            2.5136   -12.1402    17.4756 C       0      r0    -0.0012
   3909 C            1.2793   -11.6325    16.6987 C       0      r0     0.1082
   3910 C            1.3693   -10.1334    16.3728 C       0      r0     0.2034
   3911 C           -1.0541   -15.2373    14.7640 C       5      r5     0.1458
   3912 C           -0.6030   -16.3386    14.0869 C       5      r5    -0.0163
   3913 C            0.6499   -16.6128    14.6257 C       5      r5    -0.0218
   3914 C            0.8822   -15.7077    15.7256 C       5      r5     0.1128
   3915 O           -0.3238   -14.6834    15.8411 O       5      r5    -0.5035
   3916 C            1.9423   -15.7032    16.5142 C       0      r0    -0.0376
   3917 C           -0.6156    -6.6772    11.1218 C       3      r3     0.0093
   3918 H           -1.6769   -10.2801    15.7152 H       0      r0     0.0552
   3919 H           -3.4053   -12.0834    15.1070 H       0      r0     0.0762
   3920 H           -0.3821   -10.3940    12.6266 H       0      r0     0.0936
   3921 H           -1.3936   -12.6253    11.7009 H       0      r0     0.0829
   3922 H            3.1424   -11.2626    11.8232 H       0      r0     0.0635
   3923 H            1.4376    -9.5328    14.2940 H       0      r0     0.0846
   3924 H            0.0545    -8.9430    15.0364 H       0      r0     0.0635
   3925 H           -3.1504   -14.5472    14.8365 H       0      r0     0.0483
   3926 H           -2.6723   -15.0471    13.2889 H       0      r0     0.0934
   3927 H            0.6550   -15.5610    11.5393 H       0      r0     0.0892
   3928 H            2.9027    -6.3409    11.4963 H       0      r0     0.0587
   3929 H            4.0354    -8.8531    11.5021 H       0      r0     0.0482
   3930 H           -0.6282   -17.2799    10.8405 H       0      r0     0.0980
   3931 H           -3.1261   -18.0495    10.3197 H       0      r0     0.1204
   3932 H            2.6016   -13.0793    18.0037 H       0      r0     0.0585
   3933 H            0.3704   -11.9402    17.1999 H       0      r0     0.0747
   3934 H           -1.0443   -16.8497    13.2922 H       0      r0     0.0447
   3935 H            1.3411   -17.3859    14.3149 H       0      r0     0.0395
   3936 H            2.6551   -16.4613    16.4251 H       0      r0     0.0283
   3937 H            1.9000   -14.9946    17.3289 H       0      r0     0.0833
   3938 H            1.2849    -4.6774     8.5632 H       0      r0     0.3111
   3939 H           -0.2313    -3.9924     9.9665 H       0      r0     0.3664
   3940 C          -12.6146     1.6281    13.8234 C       7      r7     0.1748
   3941 C          -13.4568     0.6704    14.3761 C       7      r7     0.0004
   3942 C          -14.2406    -0.3301    13.7392 C       7      r7    -0.0200
   3943 C          -14.1911    -0.8093    12.4308 C       7      r7     0.1593
   3944 C          -14.8284    -2.1672    12.3112 C       0      r0    -0.0193
   3945 O          -13.6407    -0.2783    11.4178 O       7      r7    -0.4668
   3946 O          -12.6186     2.0546    12.6093 O       7      r7    -0.4782
   3947 C          -13.9469    -3.2736    12.9816 C       5      r5     0.1305
   3948 C          -12.8037    -2.7939    13.5689 C       5      r5    -0.0309
   3949 C          -12.2419    -3.8435    14.2405 C       5      r5    -0.0292
   3950 C          -12.9345    -5.0541    13.7777 C       5      r5     0.1057
   3951 O          -14.1715    -4.6207    12.8720 O       5      r5    -0.4716
   3952 C          -12.6217    -6.2190    14.0931 C       0      r0    -0.0032
   3953 C          -11.5390     2.2229    14.5751 C       0      r0     0.0161
   3954 C          -13.1929     2.0483    18.5539 C       0      r0     0.1617
   3955 C          -13.0040     3.2795    18.0783 C       0      r0    -0.0326
   3956 C          -12.3081     3.2629    16.8186 C       0      r0    -0.0267
   3957 C          -11.7609     2.0919    16.1105 C       0      r0     0.1597
   3958 O          -11.4961     1.0248    16.5350 O       0      r0    -0.4889
   3959 H          -13.4506     0.7460    15.4422 H       0      r0     0.0834
   3960 H          -14.6930    -1.0751    14.4249 H       0      r0     0.0248
   3961 H          -15.8656    -2.1343    12.6455 H       0      r0     0.0460
   3962 H          -15.0534    -2.4861    11.2965 H       0      r0     0.0752
   3963 H          -12.5176    -1.7377    13.6329 H       0      r0     0.0555
   3964 H          -11.3908    -3.8307    14.8635 H       0      r0     0.1023
   3965 H          -11.7451    -6.5135    14.7136 H       0      r0     0.0887
   3966 H          -13.1226    -7.0677    13.7085 H       0      r0     0.0970
   3967 H          -10.5536     1.8175    14.2216 H       0      r0     0.1383
   3968 H          -11.4842     3.2507    14.2893 H       0      r0     0.0448
   3969 H          -13.4972     4.1238    18.6028 H       0      r0     0.0454
   3970 H          -12.1655     4.2172    16.3248 H       0      r0     0.0423
   3971 C          -13.8011     2.7586    -3.3205 C       0      r0     0.1947
   3972 C          -13.7360     3.0547    -4.7376 C       0      r0     0.0086
   3973 C          -12.7466     3.6942    -5.3905 C       0      r0     0.0028
   3974 C          -11.4304     4.1805    -5.0144 C       0      r0     0.1858
   3975 C          -10.5953     4.8982    -6.1927 C       0      r0    -0.0031
   3976 O          -10.9580     4.0644    -3.9608 O       0      r0    -0.4990
   3977 O          -14.2248     1.6993    -2.8689 O       0      r0    -0.4662
   3978 C           -9.9379     3.8992    -7.1601 C       5      r5     0.1312
   3979 C           -9.6929     2.6949    -6.5760 C       5      r5    -0.0300
   3980 C           -8.8706     2.0213    -7.4680 C       5      r5    -0.0313
   3981 C           -8.6716     2.8771    -8.6403 C       5      r5     0.0993
   3982 O           -9.4525     4.1825    -8.4172 O       5      r5    -0.4785
   3983 C           -7.8705     2.5533    -9.6185 C       0      r0    -0.0337
   3984 C          -13.4628     3.7771    -2.3164 C       0      r0     0.0398
   3985 C          -15.1305     2.9386    -0.3028 C       0      r0    -0.0063
   3986 C          -16.1094     3.4712    -1.2103 C       0      r0    -0.0318
   3987 C          -15.8938     4.5262    -2.1142 C       0      r0     0.0063
   3988 C          -14.5123     4.8805    -2.4889 C       0      r0     0.1854
   3989 O          -14.1630     5.8457    -3.0690 O       0      r0    -0.5067
   3990 H          -14.5988     2.7314    -5.3233 H       0      r0     0.0808
   3991 H          -12.9122     4.0188    -6.4685 H       0      r0     0.1111
   3992 H          -11.3371     5.5530    -6.7067 H       0      r0     0.0946
   3993 H           -9.9150     5.6654    -5.8141 H       0      r0     0.0727
   3994 H           -9.9976     2.3185    -5.6267 H       0      r0     0.0600
   3995 H           -8.3918     1.0544    -7.3152 H       0      r0     0.0557
   3996 H           -7.3698     1.6073    -9.5717 H       0      r0     0.0641
   3997 H           -7.7487     3.1778   -10.5032 H       0      r0     0.0675
   3998 H          -13.4137     3.4639    -1.2452 H       0      r0     0.1145
   3999 H          -12.4838     4.1892    -2.5349 H       0      r0     0.1234
   4000 H          -17.1027     3.1433    -1.0652 H       0      r0     0.0514
   4001 H          -16.6870     4.9737    -2.6602 H       0      r0     0.1258
   4002 C          -12.1851     7.4939    15.7953 C       5      r5     0.1097
   4003 O          -10.8407     8.1962    15.5119 O       5      r5    -0.4559
   4004 C          -10.9060     9.0843    16.6012 C       5      r5     0.1281
   4005 C          -12.0325     8.8950    17.4576 C       5      r5    -0.0087
   4006 C          -12.8912     7.9105    16.8946 C       5      r5    -0.0072
   4007 C          -12.5810     6.5152    14.8573 C       0      r0    -0.0055
   4008 C           -9.8665    11.1222    17.7990 C       5      r5     0.1322
   4009 O           -8.6568    11.6499    18.1431 O       5      r5    -0.4645
   4010 C           -9.3169    12.7858   -18.3321 C       5      r5     0.2184
   4011 C          -10.8672    12.5793   -18.3876 C       5      r5    -0.0175
   4012 C          -11.1635    11.5696    18.2033 C       5      r5    -0.0323
   4013 C           -9.8678     9.9788    16.9673 C       0      r0     0.0159
   4014 C          -13.8151     5.7749    15.0328 C       5      r5     0.1262
   4015 C          -13.7880     4.9129    14.0119 C       5      r5    -0.0196
   4016 C          -15.0308     4.1852    14.2597 C       5      r5    -0.0209
   4017 C          -15.6366     4.7093    15.4852 C       5      r5     0.1264
   4018 O          -14.8460     5.8647    16.0270 O       5      r5    -0.4674
   4019 C          -16.6964     4.1008    15.6976 C       0      r0    -0.0397
   4020 H          -12.2025     9.4318    18.3700 H       0      r0     0.0880
   4021 H          -13.8056     7.5294    17.2974 H       0      r0     0.1180
   4022 H          -11.8627     6.2349    14.0728 H       0      r0     0.0722
   4023 H          -11.6258    13.1221   -17.8360 H       0      r0     0.0476
   4024 H          -12.1274    11.1784    18.0344 H       0      r0     0.0732
   4025 H           -8.9117     9.8507    16.5312 H       0      r0     0.0963
   4026 H          -13.0114     4.6240    13.2938 H       0      r0     0.0628
   4027 H          -15.4092     3.4722    13.5560 H       0      r0     0.0467
   4028 H          -17.0068     3.3590    14.9924 H       0      r0     0.0422
   4029 H          -17.3090     4.3223    16.6027 H       0      r0     0.0556
   4030 C          -17.0042    14.4083   -17.1715 C       5      r5     0.1466
   4031 O          -16.7723    15.7248   -17.4901 O       5      r5    -0.4702
   4032 C          -15.2601    15.6066   -17.8225 C       5      r5     0.0991
   4033 C          -14.8156    14.2978   -17.8782 C       5      r5    -0.0212
   4034 C          -15.8712    13.5658   -17.4143 C       5      r5     0.0088
   4035 C          -18.1253    13.8051   -16.4798 C       0      r0     0.0039
   4036 C          -13.1137    16.6050    18.6746 C       0      r0     0.1357
   4037 O          -12.4826    17.1566    17.6095 O       0      r0    -0.5799
   4038 C          -10.1683    16.3447   -18.5742 C       0      r0     0.1516
   4039 C          -11.0084    15.7106   -17.7857 C       0      r0    -0.0227
   4040 C          -12.5291    15.8525   -17.7811 C       0      r0    -0.0295
   4041 C          -14.5153    16.7079   -18.3219 C       0      r0    -0.0060
   4042 C          -18.2898    12.4211   -16.5343 C       5      r5     0.1409
   4043 C           17.8217    12.2728   -15.7792 C       5      r5    -0.0046
   4044 C           17.4626    10.8871   -15.6371 C       5      r5    -0.0176
   4045 C           18.5355    10.3320   -16.3390 C       5      r5     0.1069
   4046 O          -17.7001    11.3020   -17.0537 O       5      r5    -0.4825
   4047 C           18.4333     9.0244   -16.2623 C       0      r0    -0.0431
   4048 H          -13.7813    13.9308   -18.0969 H       0      r0     0.0562
   4049 H          -15.9052    12.4786   -17.2394 H       0      r0     0.1271
   4050 H           18.4618    14.5337   -15.9765 H       0      r0     0.0792
   4051 H          -10.4779    15.0622   -17.0691 H       0      r0     0.0655
   4052 H          -13.1250    15.4342   -16.9591 H       0      r0     0.0476
   4053 H          -15.0317    17.6074   -18.4471 H       0      r0     0.0669
   4054 H           17.2647    13.1190   -15.4068 H       0      r0     0.0630
   4055 H           16.5764    10.3961   -15.1209 H       0      r0     0.0550
   4056 H           17.6889     8.5711   -15.6365 H       0      r0     0.0451
   4057 H          -18.1100     8.4229   -16.6990 H       0      r0     0.0443
   4058 C           -9.9746     6.2651     7.1064 C       5      r5     0.0960
   4059 O          -11.5955     6.2799     6.8248 O       5      r5    -0.4668
   4060 C          -11.6031     7.4611     6.0580 C       5      r5     0.1676
   4061 C          -10.3418     8.1158     6.0468 C       5      r5    -0.0056
   4062 C           -9.3086     7.4764     6.7555 C       5      r5    -0.0303
   4063 C           -9.1500     5.4409     7.5693 C       0      r0    -0.0091
   4064 C          -12.6767     7.9596     5.4021 C       0      r0     0.2047
   4065 H          -10.1596     9.0780     5.5428 H       0      r0     0.1197
   4066 H           -8.2716     7.7423     6.8227 H       0      r0     0.0460
   4067 H           -8.6586     4.5630     7.9966 H       0      r0     0.1117
   4068 H          -12.6195     8.8814     4.7543 H       0      r0     0.1423
   4069 C           16.4132    10.1598     4.6624 C       5      r5     0.1124
   4070 O           16.5526    10.4603     3.2002 O       5      r5    -0.4626
   4071 C           17.9191    10.7673     3.1843 C       5      r5     0.1345
   4072 C          -18.6357    10.6829     4.3888 C       5      r5    -0.0155
   4073 C           17.7284    10.3087     5.2933 C       5      r5    -0.0313
   4074 C           15.2970     9.8647     5.3460 C       0      r0    -0.0295
   4075 C          -18.5499    11.2198     2.0622 C       0      r0    -0.0185
   4076 H          -17.5970    10.7973     4.4673 H       0      r0     0.1031
   4077 H           17.9878    10.0582     6.2951 H       0      r0     0.0590
   4078 H           14.5997     9.7414     6.1291 H       0      r0     0.0613
   4079 H          -17.5314    11.4700     2.2010 H       0      r0     0.0730
   4080 C          -17.9317   -16.8967    13.8795 C       6      r6     0.0573
   4081 C           18.1318   -17.3455    14.5864 C       6      r6    -0.0538
   4082 C           18.2293   -18.6233    14.3608 C       6      r6    -0.0208
   4083 C          -17.8486   -18.9601    13.4542 C       6      r6     0.1518
   4084 C          -17.1681   -18.6818    10.9492 C       5      r5     0.1723
   4085 O          -16.3015   -17.6394    10.9384 O       5      r5    -0.4881
   4086 C          -16.9313   -16.4740    11.5120 C       5      r5     0.1365
   4087 C          -18.1175   -16.8830    12.3511 C       6      r6     0.0012
   4088 C          -18.1802   -18.4565    12.0341 C       6      r6     0.0290
   4089 C          -16.5423   -15.2086    11.2205 C       0      r0     0.0075
   4090 C          -17.4407   -15.5366    14.6226 C       0      r0    -0.0225
   4091 C          -17.6966    17.3550    13.4707 C       0      r0    -0.0024
   4092 C          -17.3799    18.3167     9.9694 C       0      r0     0.0161
   4093 O          -16.8022   -18.1791    13.7894 O       5      r5    -0.4617
   4094 C          -17.5174   -11.7364    11.8165 C       5      r5     0.1239
   4095 C          -18.5366   -12.4197    12.5105 C       5      r5    -0.0176
   4096 C          -18.2316   -13.7694    12.2139 C       5      r5    -0.0212
   4097 C          -17.0443   -13.8783    11.5045 C       5      r5     0.1404
   4098 O          -16.4194   -12.7157    11.1169 O       5      r5    -0.4547
   4099 O           17.9298    17.0852    11.0125 O       5      r5    -0.5052
   4100 C          -18.3482    17.2564     9.9486 C       5      r5     0.1188
   4101 C          -18.3448    16.3897     8.8504 C       5      r5    -0.0300
   4102 C           17.9331    15.4795     9.1458 C       5      r5    -0.0386
   4103 C           17.2833    15.8746    10.3805 C       5      r5     0.1083
   4104 O          -16.5692   -14.8834    16.8665 O       5      r5    -0.4547
   4105 C          -16.2159   -15.9737    18.0581 C       5      r5     0.0930
   4106 C          -16.5273   -17.3406    17.8053 C       5      r5    -0.0406
   4107 C          -17.0507   -17.1896    16.5002 C       5      r5    -0.0045
   4108 C          -17.0439   -15.8694    16.0739 C       5      r5     0.1407
   4109 C          -17.6616    16.7861    14.8913 C       5      r5     0.1457
   4110 C          -18.2122    15.4979    14.9359 C       5      r5    -0.0411
   4111 C          -18.3431    15.2020    16.2242 C       5      r5    -0.0472
   4112 C          -17.7682    16.3591    17.0392 C       5      r5     0.0814
   4113 O          -17.2913    17.4979    15.9755 O       5      r5    -0.4672
   4114 C          -15.7547   -15.8353   -18.1897 C       0      r0    -0.0172
   4115 C           16.3216    15.1719    10.9246 C       0      r0    -0.0405
   4116 H           17.4511   -16.7106    15.1281 H       0      r0     0.0479
   4117 H           17.5409    18.5983    14.7644 H       0      r0     0.0539
   4118 H           18.3371   -16.3186    12.1154 H       0      r0     0.0273
   4119 H           18.2096   -18.9085    11.8786 H       0      r0     0.0665
   4120 H          -15.6327   -15.4147    10.6116 H       0      r0     0.0825
   4121 H          -16.4762   -15.1356    14.1346 H       0      r0     0.1300
   4122 H          -18.2894   -14.8120    14.5514 H       0      r0     0.0406
   4123 H          -18.4252    16.7617    12.8658 H       0      r0     0.0769
   4124 H          -16.7324    17.2254    12.8877 H       0      r0     0.1144
   4125 H          -16.7073    18.2657     9.1614 H       0      r0     0.0706
   4126 H           17.9102   -12.0615    13.1268 H       0      r0     0.0543
   4127 H           18.4085   -14.5856    12.4885 H       0      r0     0.0313
   4128 H          -17.7099    16.3360     8.0119 H       0      r0     0.0522
   4129 H           17.6569    14.6139     8.5679 H       0      r0     0.0261
   4130 H          -16.2975   -18.2075    18.3255 H       0      r0     0.0459
   4131 H          -17.3105   -17.9371    15.7975 H       0      r0     0.1321
   4132 H          -18.5759    14.9241    14.1220 H       0      r0     0.0323
   4133 H           18.4867    14.3268    16.5761 H       0      r0     0.0297
   4134 H          -15.6500   -16.6398   -17.4686 H       0      r0     0.0385
   4135 H          -15.5316   -14.8770   -17.7694 H       0      r0     0.1346
   4136 H           15.9868    14.3117    10.3969 H       0      r0     0.0444
   4137 H           15.8074    15.4065    11.8179 H       0      r0     0.0691
   4138 C           14.7649    14.0070    17.5816 C       6      r6     0.0753
   4139 C           15.1262    12.8612    16.6740 C       6      r6    -0.0453
   4140 C           14.5355    11.8083    17.1806 C       6      r6    -0.0295
   4141 C           13.7982    12.1913    18.4797 C       6      r6     0.0983
   4142 C           14.5598    12.7090   -16.5162 C       5      r5     0.1440
   4143 O           14.4055    14.0157   -16.2248 O       5      r5    -0.4718
   4144 C           15.2347    14.6772   -17.3287 C       5      r5     0.1184
   4145 C           15.6059    13.8354   -18.5568 C       6      r6    -0.0143
   4146 C           14.9390    12.5194   -18.0139 C       6      r6     0.0172
   4147 C           15.5708    15.9476   -17.2209 C       0      r0     0.0115
   4148 C           14.9143    15.2084    16.7474 C       0      r0    -0.0213
   4149 C           12.8725    11.0849   -18.5184 C       0      r0    -0.0001
   4150 C           14.3013    11.6910   -15.6577 C       0      r0    -0.0032
   4151 O           13.2419    13.5654    18.1705 O       5      r5    -0.4825
   4152 C           17.7265    18.1257    18.0897 C       5      r5     0.1174
   4153 C           18.4065    16.8982    17.9658 C       5      r5     0.0251
   4154 C           17.5261    16.0625   -18.6237 C       5      r5    -0.0043
   4155 C           16.5170    16.7484   -18.0532 C       5      r5     0.1433
   4156 O           16.4266    18.0920   -18.3302 O       5      r5    -0.4644
   4157 O           15.1281     9.8246   -17.1679 O       5      r5    -0.4972
   4158 C           14.5345    10.3069   -15.9735 C       5      r5     0.1144
   4159 C           14.1775     9.3702   -14.9987 C       5      r5    -0.0279
   4160 C           14.4667     8.0420   -15.3953 C       5      r5    -0.0422
   4161 C           14.9064     8.3034   -16.7313 C       5      r5     0.0959
   4162 O           14.2402    16.1187    14.4533 O       5      r5    -0.4734
   4163 C           12.8391    15.7733    13.6622 C       5      r5     0.0811
   4164 C           12.1031    14.8066    14.4769 C       5      r5    -0.0446
   4165 C           12.8481    14.5417    15.5940 C       5      r5    -0.0099
   4166 C           13.9779    15.3107    15.4862 C       5      r5     0.1463
   4167 C           11.7662    11.4938   -17.5257 C       0      r0     0.1750
   4168 C           11.7339    12.8041   -17.2389 C       0      r0     0.0175
   4169 C           10.8230    13.3684   -16.2441 C       0      r0    -0.0146
   4170 C           10.0673    12.5690   -15.4649 C       0      r0     0.1255
   4171 O           11.0708    10.4975   -17.1561 O       0      r0    -0.4578
   4172 C           12.4582    16.2167    12.5500 C       0      r0    -0.0400
   4173 C           15.1516     7.1365   -17.2702 C       0      r0    -0.0273
   4174 H           15.7445    12.8242    15.8206 H       0      r0     0.0321
   4175 H           14.5887    10.7834    16.7707 H       0      r0     0.0565
   4176 H           16.7048    13.9141   -18.5275 H       0      r0     0.0219
   4177 H           15.5956    11.6909   -17.9043 H       0      r0     0.0845
   4178 H           15.2046    16.2986   -16.3035 H       0      r0     0.0989
   4179 H           14.9107    16.1644    17.2711 H       0      r0     0.0743
   4180 H           15.9706    15.1796    16.3806 H       0      r0     0.0422
   4181 H           12.4674    10.5625    17.9995 H       0      r0     0.0613
   4182 H           13.5144    10.2973   -18.0018 H       0      r0     0.1194
   4183 H           13.9351    12.0367   -14.6811 H       0      r0     0.0656
   4184 H          -16.8712    16.3014    17.6589 H       0      r0     0.1194
   4185 H           17.6575    14.9990   -18.5250 H       0      r0     0.0367
   4186 H           13.7861     9.6345   -14.0633 H       0      r0     0.0443
   4187 H           14.4631     7.1551   -14.7948 H       0      r0     0.0392
   4188 H           11.1348    14.3810    14.2641 H       0      r0     0.0326
   4189 H           12.6047    13.8229    16.3961 H       0      r0     0.1197
   4190 H           12.4966    13.4779   -17.6999 H       0      r0     0.1597
   4191 H           10.7316    14.4326   -16.1961 H       0      r0     0.0499
   4192 H           11.5146    15.9085    12.0656 H       0      r0     0.0393
   4193 H           13.0310    16.9719    12.0447 H       0      r0     0.0740
   4194 H           14.9208     6.1601   -16.8133 H       0      r0     0.0588
   4195 H           15.5064     7.1200   -18.2735 H       0      r0     0.1133
   4196 C          -13.2377   -17.8096    15.1416 C       6      r6     0.1041
   4197 C          -14.0553   -18.7489    15.9428 C       6      r6    -0.0024
   4198 C          -14.2808    17.8965    15.4946 C       6      r6     0.0220
   4199 C          -14.1454    17.6024    14.0980 C       6      r6     0.0077
   4200 C          -13.0891    18.6635    11.9470 C       5      r5     0.1450
   4201 O          -12.2905   -18.1577    11.8887 O       5      r5    -0.5146
   4202 C          -13.0306   -17.1560    12.6302 C       5      r5     0.1337
   4203 C          -13.9684   -17.6817    13.6649 C       6      r6     0.0246
   4204 C          -14.1503    18.7055    13.0486 C       6      r6     0.0279
   4205 C          -13.0754   -15.8698    12.3303 C       0      r0    -0.0082
   4206 C          -13.2162   -16.4752    15.8481 C       0      r0     0.0173
   4207 C          -14.3571    16.2869    14.0011 C       0      r0    -0.0078
   4208 C          -12.9994    17.5564    11.1083 C       0      r0    -0.0061
   4209 O          -11.7524   -18.0656    14.9803 O       0      r0    -0.5932
   4210 C          -14.8669   -13.3169    14.1891 C       5      r5     0.1159
   4211 C          -14.2387   -12.6064    13.0893 C       5      r5    -0.0097
   4212 C          -13.4638   -13.5367    12.3695 C       5      r5    -0.0265
   4213 C          -13.7774   -14.7300    12.9410 C       5      r5     0.1172
   4214 O          -14.6236   -14.8168    14.0981 O       5      r5    -0.5034
   4215 O          -15.3429    16.6207    11.4518 O       0      r0    -0.5941
   4216 C          -14.0217    16.5815    10.9446 C       0      r0     0.1186
   4217 C          -13.3432    15.5240    10.3699 C       0      r0    -0.0487
   4218 C          -13.9568    14.2260    10.2012 C       0      r0    -0.0561
   4219 C          -15.2222    13.8131    10.7022 C       0      r0    -0.0261
   4220 O          -12.5905   -15.5513    17.9628 O       0      r0    -0.5003
   4221 C          -11.4044   -17.0377   -17.4880 C       0      r0     0.1671
   4222 C          -11.4507   -17.9211   -18.5230 C       0      r0    -0.0164
   4223 C          -11.9916   -17.7460    17.6146 C       0      r0     0.0162
   4224 C          -12.6000   -16.5107    17.2800 C       0      r0     0.1920
   4225 C          -13.9288    15.2943    15.0264 C       6      r6     0.0701
   4226 C          -14.8137    14.5789    15.8868 C       6      r6    -0.0256
   4227 C          -13.2365    13.2469    15.5115 C       6      r6     0.0111
   4228 C          -11.9434    13.9846    15.7863 C       6      r6     0.0969
   4229 O          -12.2727    15.4361    15.6467 O       6      r6    -0.5343
   4230 C          -10.8537    13.5049    16.0722 C       0      r0    -0.0322
   4231 C          -15.6379   -12.6409    14.9902 C       0      r0    -0.0285
   4232 H          -14.1624   -18.3452    16.8967 H       0      r0     0.0515
   4233 H          -14.5375    17.0737    16.2074 H       0      r0     0.1014
   4234 H          -14.8175   -17.0987    13.7607 H       0      r0     0.1236
   4235 H          -14.9347    18.5662    12.2568 H       0      r0     0.1458
   4236 H          -12.3776   -15.4929    11.5440 H       0      r0     0.0425
   4237 H          -12.6849   -15.7055    15.2238 H       0      r0     0.0875
   4238 H          -14.2160   -15.9501    15.8198 H       0      r0     0.1113
   4239 H          -15.7034    15.7567    11.1183 H       0      r0     0.2568
   4240 H          -14.5727    15.8140    13.0674 H       0      r0     0.1000
   4241 H          -12.0594    17.4989    10.5141 H       0      r0     0.0560
   4242 H          -14.3384   -11.5613    12.8428 H       0      r0     0.0614
   4243 H          -12.8227   -13.3385    11.5231 H       0      r0     0.0387
   4244 H          -12.2889    15.5636    10.1675 H       0      r0     0.0414
   4245 H          -13.6159    13.4085     9.5062 H       0      r0     0.0581
   4246 H          -11.1284    18.9467   -18.3795 H       0      r0     0.0738
   4247 H          -11.8828   -18.5774    16.9510 H       0      r0     0.1310
   4248 H          -14.7680    14.3530    16.9241 H       0      r0     0.0600
   4249 H          -16.0017     7.3763    16.2818 H       0      r0     0.3551
   4250 H          -10.7820    12.4384    16.1757 H       0      r0     0.0446
   4251 H          -10.0062    14.1202    16.3113 H       0      r0     0.0676
   4252 H          -15.8582   -11.6060    14.8012 H       0      r0     0.0386
   4253 H          -16.1503   -13.1223    15.7992 H       0      r0     0.1225
   4254 C          -16.5908     9.1416    16.8076 C       6      r6     0.1135
   4255 C          -17.7635     9.6322    17.6344 C       6      r6    -0.0320
   4256 C           18.2457     9.2680    17.5365 C       6      r6    -0.0472
   4257 C           18.2422     8.3453    16.4375 C       6      r6    -0.0083
   4258 C          -18.2003     7.5232    14.2022 C       5      r5     0.1431
   4259 O          -16.8202     7.2570    13.9672 O       5      r5    -0.5022
   4260 C          -16.1365     8.3648    14.3977 C       5      r5     0.1625
   4261 C          -16.9305     9.2282    15.3161 C       6      r6     0.0040
   4262 C          -18.4434     8.7323    15.1050 C       6      r6     0.0053
   4263 C          -14.8838     8.7494    13.9921 C       0      r0     0.0176
   4264 C          -15.4121    10.0414    17.1275 C       0      r0     0.0219
   4265 C           17.3434     7.1777    16.6652 C       0      r0    -0.0016
   4266 C           18.0845     6.7539    13.8391 C       0      r0    -0.0062
   4267 O          -16.0571     7.8746    17.1371 O       0      r0    -0.6000
   4268 C          -13.5185    11.8990    15.0432 C       5      r5     0.1300
   4269 C          -12.3727    11.1922    14.4237 C       5      r5    -0.0243
   4270 C          -12.8256     9.9958    13.9809 C       5      r5    -0.0110
   4271 C          -14.1685     9.9387    14.3099 C       5      r5     0.1090
   4272 O          -14.7330    11.2095    14.9542 O       5      r5    -0.4947
   4273 O           16.2986     8.4136    14.4788 O       5      r5    -0.4716
   4274 C           16.6693     7.1552    14.0303 C       5      r5     0.1204
   4275 C           15.7154     6.2448    13.4978 C       5      r5    -0.0276
   4276 C           14.5156     6.8685    13.5738 C       5      r5    -0.0101
   4277 C           14.7338     8.3166    13.9975 C       5      r5     0.1988
   4278 O          -14.3218    11.2327   -18.3940 O       5      r5    -0.4870
   4279 C          -14.3404    10.8579   -16.7332 C       5      r5     0.0837
   4280 C          -15.1029     9.5870   -16.6208 C       5      r5    -0.0200
   4281 C          -15.5333     9.2196   -17.8774 C       5      r5     0.0112
   4282 C          -15.0758    10.1975    18.6402 C       5      r5     0.1608
   4283 C           17.6673     6.3993    17.9516 C       5      r5     0.1425
   4284 C          -18.3005     6.5264    18.4473 C       5      r5    -0.0214
   4285 C          -18.2819     5.6296   -17.9100 C       5      r5    -0.0428
   4286 C           17.7108     4.9684   -17.7751 C       5      r5     0.0887
   4287 O           16.7578     5.5820    18.4938 O       5      r5    -0.4644
   4288 C           17.4841     4.1756   -16.7785 C       0      r0    -0.0556
   4289 C          -14.2569    13.8673    14.7756 C       6      r6     0.0064
   4290 H          -17.6063    10.4143    18.3512 H       0      r0     0.0942
   4291 H           17.4113     9.6094    18.0928 H       0      r0     0.0685
   4292 H          -16.8273    10.2853    15.1998 H       0      r0     0.0651
   4293 H           18.2338     9.5221    14.6289 H       0      r0     0.0852
   4294 H          -14.4193     8.1108    13.2581 H       0      r0     0.0962
   4295 H          -14.5020     9.7884    16.5440 H       0      r0     0.0967
   4296 H          -15.4344    11.1373    16.7915 H       0      r0     0.1078
   4297 H           16.2825     7.5731    16.6011 H       0      r0     0.1037
   4298 H           17.3516     6.4336    15.8483 H       0      r0     0.0729
   4299 H           18.3455     5.8435    13.3519 H       0      r0     0.0487
   4300 H          -11.3985    11.6164    14.4019 H       0      r0     0.0624
   4301 H          -12.2559     9.1943    13.5820 H       0      r0     0.0826
   4302 H           15.9606     5.2230    13.1781 H       0      r0     0.0449
   4303 H           13.5573     6.5091    13.2884 H       0      r0     0.0492
   4304 H          -15.3712     9.0860   -15.7256 H       0      r0     0.0404
   4305 H          -16.1433     8.3478   -18.1090 H       0      r0     0.0825
   4306 H          -17.4373     7.1920    18.0967 H       0      r0     0.1212
   4307 H          -17.5189     5.3222   -17.1889 H       0      r0     0.0281
   4308 H           18.2326     3.8626   -16.0387 H       0      r0     0.0309
   4309 H           16.4181     3.8334   -16.5919 H       0      r0     0.0669
   4310 H          -11.5558   -17.8677    14.0986 H       0      r0     0.3156
   4311 H          -12.2577    16.3606    16.8838 H       0      r0     0.3399
   4312 C            5.2272    -7.6191     5.5854 C       0      r0     0.1911
   4313 C            3.8682    -7.8850     5.0977 C       0      r0     0.0020
   4314 C            3.1361    -9.0157     5.4346 C       0      r0    -0.0254
   4315 C            3.5349   -10.0597     6.2621 C       0      r0     0.1475
   4316 C            2.3533   -10.9214     6.5603 C       0      r0    -0.0099
   4317 O            4.6201   -10.2837     6.8760 O       0      r0    -0.5058
   4318 O            5.6478    -6.5224     5.6865 O       0      r0    -0.4878
   4319 C            1.4048   -10.4651     7.6987 C       5      r5     0.1277
   4320 C            1.8442    -9.3871     8.4245 C       5      r5    -0.0208
   4321 C            0.8235    -9.1355     9.3334 C       5      r5    -0.0216
   4322 C           -0.2614   -10.0584     9.0920 C       5      r5     0.0894
   4323 O            0.1656   -11.0291     7.8583 O       5      r5    -0.4711
   4324 C           -1.3795   -10.1979     9.7554 C       0      r0    -0.0381
   4325 C            6.2786    -8.7118     5.7394 C       0      r0     0.0279
   4326 C            9.8503    -5.4778     4.6855 C       0      r0     0.1121
   4327 C            9.4023    -6.7575     4.5183 C       0      r0    -0.0213
   4328 C            8.1638    -7.2563     5.2828 C       0      r0     0.0207
   4329 C            7.5114    -8.3277     4.8975 C       0      r0     0.1644
   4330 O            7.6845    -9.1938     3.9156 O       0      r0    -0.5022
   4331 H            3.3314    -7.1794     4.5165 H       0      r0     0.0838
   4332 H            2.1232    -9.0642     5.0282 H       0      r0     0.0554
   4333 H            1.6897   -11.0559     5.7157 H       0      r0     0.0593
   4334 H            2.6853   -11.9723     6.7901 H       0      r0     0.0852
   4335 H            2.7471    -8.8689     8.2564 H       0      r0     0.0761
   4336 H            0.8787    -8.4313    10.1515 H       0      r0     0.0815
   4337 H           -1.4914    -9.5671    10.6552 H       0      r0     0.0565
   4338 H           -2.1589   -10.7779     9.4158 H       0      r0     0.0613
   4339 H            6.4382    -8.8769     6.8180 H       0      r0     0.0796
   4340 H            5.9525    -9.6163     5.3513 H       0      r0     0.1011
   4341 H            9.8228    -7.3051     3.7035 H       0      r0     0.0540
   4342 H            7.7810    -6.6953     6.1339 H       0      r0     0.1004
   4343 C            9.1417    14.4785    -4.5913 C       0      r0     0.1720
   4344 C           10.0975    15.2831    -5.3452 C       0      r0    -0.0197
   4345 C           11.4322    15.4732    -4.9758 C       0      r0    -0.0351
   4346 C           12.2025    14.7581    -4.0514 C       0      r0     0.1370
   4347 C           13.5803    15.3096    -4.1375 C       0      r0    -0.0101
   4348 O           11.9253    13.7308    -3.3157 O       0      r0    -0.4824
   4349 O            8.3073    13.7765    -5.0176 O       0      r0    -0.4917
   4350 C           13.5894    16.8818    -3.9817 C       5      r5     0.1276
   4351 C           12.8187    17.4570    -3.0248 C       5      r5    -0.0451
   4352 C           13.1078    18.8356    -3.1490 C       5      r5    -0.0422
   4353 C           13.9925   -18.9145    -4.2610 C       5      r5     0.0927
   4354 O           14.2689    17.5733    -4.8991 O       5      r5    -0.4648
   4355 C           14.3680   -17.7512    -4.7434 C       0      r0    -0.0317
   4356 C            9.1515    14.9641    -3.0883 C       0      r0    -0.0026
   4357 C            5.9182    16.2482    -1.6274 C       5      r5     0.2169
   4358 C            5.8455    16.5285    -3.1368 C       5      r5    -0.0129
   4359 C            6.9617    15.9949    -3.7042 C       5      r5    -0.0174
   4360 C            7.7023    15.4302    -2.6788 C       5      r5     0.1562
   4361 O            7.5064    15.4450    -1.3864 O       5      r5    -0.4845
   4362 H            9.7209    15.7408    -6.2130 H       0      r0     0.0685
   4363 H           12.0027    16.2416    -5.4749 H       0      r0     0.0644
   4364 H           14.2594    14.9004    -3.3336 H       0      r0     0.1225
   4365 H           14.1743    14.9888    -5.0197 H       0      r0     0.0643
   4366 H           12.1705    17.0273    -2.3226 H       0      r0     0.0270
   4367 H           12.7125   -18.3440    -2.5137 H       0      r0     0.0453
   4368 H           14.0502   -16.8125    -4.3495 H       0      r0     0.0434
   4369 H           15.0553   -17.7556    -5.5367 H       0      r0     0.0947
   4370 H            9.5386    14.1385    -2.4811 H       0      r0     0.0846
   4371 H            9.9114    15.7434    -3.0596 H       0      r0     0.0439
   4372 H            5.1095    17.0653    -3.5918 H       0      r0     0.0944
   4373 H            7.3378    15.9760    -4.7063 H       0      r0     0.0677
   4374 C           10.4026    -4.3421   -17.8046 C       5      r5     0.1343
   4375 O           10.1996    -5.4131    18.4863 O       5      r5    -0.4858
   4376 C           11.5164    -5.3384    17.9850 C       5      r5     0.1388
   4377 C           12.3750    -4.4230    18.6817 C       5      r5    -0.0161
   4378 C           11.6218    -3.7347   -17.7309 C       5      r5     0.0132
   4379 C            9.3443    -4.0340   -16.9097 C       0      r0     0.0217
   4380 C           13.3014    -5.9592    16.4455 C       5      r5     0.1228
   4381 O           14.0083    -6.9767    15.7901 O       5      r5    -0.4748
   4382 C           15.2696    -5.9247    15.3982 C       5      r5     0.0849
   4383 C           15.0171    -4.5641    15.7477 C       5      r5    -0.0491
   4384 C           13.7741    -4.6235    16.3471 C       5      r5    -0.0450
   4385 C           12.0398    -6.2430    17.0383 C       0      r0     0.0097
   4386 C            9.4880    -3.1671   -15.8238 C       5      r5     0.1124
   4387 C            8.1981    -3.0557   -15.3357 C       5      r5    -0.0094
   4388 C            8.3809    -2.2211   -14.1914 C       5      r5    -0.0195
   4389 C            9.7654    -1.8088   -14.1843 C       5      r5     0.0917
   4390 O           10.8262    -2.4049   -15.2755 O       5      r5    -0.4449
   4391 C            9.9679    -1.0330   -13.2592 C       0      r0    -0.0379
   4392 H           13.3944    -4.2594    18.6220 H       0      r0     0.0456
   4393 H           11.9853    -2.9662   -17.1010 H       0      r0     0.1139
   4394 H            8.3583    -4.4793   -17.0959 H       0      r0     0.0945
   4395 H           15.6452    -3.7415    15.5104 H       0      r0     0.0372
   4396 H           13.2487    -3.7459    16.7203 H       0      r0     0.0281
   4397 H           11.4083    -7.1008    16.8806 H       0      r0     0.0754
   4398 H            7.3161    -3.5598   -15.7200 H       0      r0     0.0873
   4399 H            7.5983    -1.8448   -13.5608 H       0      r0     0.1089
   4400 H            9.1895    -0.6421   -12.6392 H       0      r0     0.0511
   4401 H           10.9983    -0.7009   -13.0715 H       0      r0     0.1033
   4402 C            2.9246     6.5868    18.6227 C       5      r5     0.1326
   4403 O            4.0963     7.3437   -18.5497 O       5      r5    -0.4849
   4404 C            5.0592     6.2253    18.6290 C       5      r5     0.1000
   4405 C            4.5392     4.9932    18.3091 C       5      r5    -0.0259
   4406 C            3.1398     5.1926    18.3763 C       5      r5    -0.0035
   4407 C            1.6674     7.1395    18.6836 C       0      r0     0.0033
   4408 C            7.6031     5.3815   -18.6631 C       0      r0     0.1238
   4409 O            8.9467     5.6062    18.3851 O       0      r0    -0.5561
   4410 C            9.4138     3.0717   -18.0712 C       0      r0     0.0844
   4411 C            8.0230     2.9946   -17.9853 C       0      r0    -0.0476
   4412 C            7.1391     4.1906   -18.1681 C       0      r0    -0.0370
   4413 C            6.5222     6.2979    18.6500 C       0      r0    -0.0047
   4414 C            0.4140     6.4807    18.4829 C       5      r5     0.1233
   4415 C           -0.7546     7.2461    18.5565 C       5      r5     0.0029
   4416 C           -1.9264     6.4714    18.3646 C       5      r5    -0.0143
   4417 C           -1.2901     5.1960    18.2033 C       5      r5     0.1088
   4418 O            0.2389     5.0688    18.2795 O       5      r5    -0.4748
   4419 C           -2.2210     4.3209    18.0493 C       0      r0    -0.0163
   4420 H            5.0927     4.0663    18.2005 H       0      r0     0.0801
   4421 H            2.4381     4.3871    18.2985 H       0      r0     0.0900
   4422 H            1.8462     8.1853   -18.5398 H       0      r0     0.0765
   4423 H            7.6912     1.9443   -17.8940 H       0      r0     0.0558
   4424 H            6.1429     4.1114   -17.8422 H       0      r0     0.0480
   4425 H            6.9474     7.2745    18.5836 H       0      r0     0.1024
   4426 H           -0.7554     8.3389   -18.6379 H       0      r0     0.0889
   4427 H           -2.9327     6.7406    18.3882 H       0      r0     0.0740
   4428 H           -3.3030     4.4611    18.0350 H       0      r0     0.0811
   4429 H           -1.9636     3.3012    17.9917 H       0      r0     0.0787
   4430 C           10.6322   -11.0956    -5.3407 C       5      r5     0.0870
   4431 O            9.1821   -11.1386    -6.0196 O       5      r5    -0.4773
   4432 C            9.6816   -11.3348    -7.3021 C       5      r5     0.1413
   4433 C           11.0482   -11.5762    -7.5621 C       5      r5    -0.0250
   4434 C           11.6206   -11.5165    -6.3281 C       5      r5    -0.0439
   4435 C           10.8797   -10.8092    -4.0606 C       0      r0    -0.0223
   4436 C            8.8340   -11.1587    -8.4668 C       0      r0     0.0286
   4437 H           11.5358   -11.7705    -8.4978 H       0      r0     0.0481
   4438 H           12.6479   -11.7028    -6.0557 H       0      r0     0.0280
   4439 H           11.3846   -10.7798    -3.0653 H       0      r0     0.1318
   4440 H            9.2018   -11.5555    -9.3830 H       0      r0     0.1103
   4441 C            5.5445     7.7224    -5.1958 C       5      r5     0.1097
   4442 O            4.8770     7.9205    -3.7438 O       5      r5    -0.4453
   4443 C            5.8333     9.0265    -3.4296 C       5      r5     0.1415
   4444 C            6.8534     9.3328    -4.2646 C       5      r5    -0.0010
   4445 C            6.7317     8.5610    -5.3717 C       5      r5    -0.0173
   4446 C            5.0660     6.9134    -6.0922 C       0      r0    -0.0321
   4447 C            5.8126     9.7360    -2.1614 C       0      r0    -0.0122
   4448 H            7.6079    10.1011    -4.0393 H       0      r0     0.0553
   4449 H            7.4257     8.6045    -6.1785 H       0      r0     0.0620
   4450 H            4.7789     6.3164    -6.8625 H       0      r0     0.0416
   4451 H            5.0380     9.4465    -1.4738 H       0      r0     0.0672
   4452 C            8.8759     1.5961    -6.3528 C       5      r5     0.1652
   4453 O            8.3983     1.0244    -7.5837 O       5      r5    -0.4546
   4454 C            7.1458     2.0430    -7.5784 C       5      r5     0.1023
   4455 C            7.1082     3.0849    -6.6005 C       5      r5    -0.0423
   4456 C            8.1702     2.7245    -5.7813 C       5      r5    -0.0234
   4457 C            9.9584     1.0916    -5.7628 C       0      r0     0.1917
   4458 C            6.2341     2.2620    -8.4497 C       0      r0    -0.0367
   4459 H            6.3642     3.8513    -6.4165 H       0      r0     0.0361
   4460 H            8.4919     3.2072    -4.8719 H       0      r0     0.0943
   4461 H           10.3233     1.6465    -4.8517 H       0      r0     0.0852
   4462 H            5.4218     2.6028    -9.0759 H       0      r0     0.0387
   4463 C            3.8734    10.7595    12.2848 C       6      r6     0.0649
   4464 C            2.4279    10.7715    12.6445 C       6      r6    -0.0532
   4465 C            2.1633     9.5203    12.3330 C       6      r6    -0.0050
   4466 C            3.2420     8.9069    11.5789 C       6      r6     0.1324
   4467 C            4.3595     9.1916     9.2003 C       5      r5     0.1605
   4468 O            5.5368     9.9417     9.2336 O       5      r5    -0.4717
   4469 C            5.2489    11.0457    10.0531 C       5      r5     0.1465
   4470 C            3.9266    11.0105    10.7579 C       6      r6    -0.0054
   4471 C            3.3226     9.6377    10.1794 C       6      r6     0.0122
   4472 C            6.1050    12.1163     9.9971 C       0      r0     0.0384
   4473 C            4.7218    11.7652    13.1933 C       0      r0    -0.0232
   4474 C            2.9489     7.4557    11.2787 C       0      r0     0.0000
   4475 C            4.0433     8.2229     8.2624 C       0      r0     0.0178
   4476 O            4.4587     9.1944    12.2799 O       5      r5    -0.4859
   4477 C            5.8819    16.0150    11.9368 C       0      r0     0.0144
   4478 C            4.7819    15.1281    11.6373 C       0      r0    -0.0297
   4479 C            4.9166    13.8440    11.0071 C       0      r0    -0.0293
   4480 C            6.0826    13.4168    10.4783 C       0      r0     0.1396
   4481 O            7.3388    14.1598    10.3537 O       0      r0    -0.4615
   4482 O            1.6572     7.7279     8.6942 O       5      r5    -0.4849
   4483 C            2.8170     7.5103     8.0167 C       5      r5     0.1478
   4484 C            2.8736     6.4924     7.0346 C       5      r5    -0.0057
   4485 C            1.6095     5.9938     6.7014 C       5      r5     0.0020
   4486 C            0.8348     6.6733     7.7235 C       5      r5     0.1041
   4487 O            4.7133    12.1766    15.7335 O       5      r5    -0.4887
   4488 C            4.7299    11.1000    16.8600 C       5      r5     0.1040
   4489 C            4.4501     9.8254    16.2978 C       5      r5    -0.0202
   4490 C            4.4113     9.9686    14.8946 C       5      r5    -0.0029
   4491 C            4.6233    11.2844    14.6678 C       5      r5     0.1342
   4492 C            2.1406     6.8152    12.4406 C       5      r5     0.1538
   4493 C            1.1111     6.0099    11.9843 C       5      r5    -0.0230
   4494 C            0.3268     5.7466    13.0334 C       5      r5    -0.0385
   4495 C            0.7639     6.3751    14.3364 C       5      r5     0.0613
   4496 O            2.2305     7.0702    13.7253 O       5      r5    -0.4454
   4497 C            4.8042    11.3114    18.1688 C       0      r0    -0.0259
   4498 C           -0.3591     6.2644     7.6598 C       0      r0    -0.0168
   4499 H            1.8126    11.4832    13.0858 H       0      r0     0.0391
   4500 H            1.1639     9.1183    12.4672 H       0      r0     0.0638
   4501 H            3.3209    11.8624    10.4933 H       0      r0     0.0286
   4502 H            2.3829     9.7174     9.6647 H       0      r0     0.0741
   4503 H            6.9216    11.8934     9.3562 H       0      r0     0.1660
   4504 H            5.7292    11.9146    12.8898 H       0      r0     0.1137
   4505 H            4.2906    12.7820    13.2520 H       0      r0     0.0462
   4506 H            2.4518     7.4427    10.2705 H       0      r0     0.1005
   4507 H            3.8968     6.8648    10.9984 H       0      r0     0.1304
   4508 H            4.8273     8.0177     7.5533 H       0      r0     0.0715
   4509 H            3.8201    15.4999    11.9013 H       0      r0     0.0575
   4510 H            4.0430    13.2091    10.9647 H       0      r0     0.0284
   4511 H            3.7290     6.2692     6.4067 H       0      r0     0.0770
   4512 H            1.3301     5.3031     5.9975 H       0      r0     0.1160
   4513 H            4.2447     8.9343    16.8243 H       0      r0     0.0840
   4514 H            4.1929     9.2055    14.1333 H       0      r0     0.1394
   4515 H            0.9302     5.6696    10.9706 H       0      r0     0.0507
   4516 H           -0.5448     5.1390    12.9450 H       0      r0     0.0307
   4517 H            4.6033    10.5549   -18.4711 H       0      r0     0.0732
   4518 H            4.9812    12.3246    18.4525 H       0      r0     0.0776
   4519 H           -0.6666     5.5273     6.9077 H       0      r0     0.0925
   4520 H           -1.1544     6.5793     8.3037 H       0      r0     0.1226
   4521 C           -4.5700     6.7371    13.8397 C       6      r6     0.0796
   4522 C           -4.7533     5.4093    13.2090 C       6      r6    -0.0337
   4523 C           -5.8823     5.0571    13.7168 C       6      r6    -0.0090
   4524 C           -6.4556     6.1565    14.6686 C       6      r6     0.1604
   4525 C           -5.9193     6.5101    17.1408 C       5      r5     0.1598
   4526 O           -5.2298     7.6863    17.3433 O       5      r5    -0.4911
   4527 C           -4.2287     7.6772    16.3529 C       5      r5     0.1418
   4528 C           -4.2428     6.5118    15.3786 C       6      r6    -0.0039
   4529 C           -5.5134     5.8618    15.8921 C       6      r6     0.0321
   4530 C           -3.2874     8.6735    16.1434 C       0      r0     0.0009
   4531 C           -3.6100     7.6689    12.9846 C       0      r0    -0.0143
   4532 C           -8.0852     5.8779    14.9519 C       0      r0     0.0059
   4533 C           -6.9431     6.0165    17.9311 C       0      r0     0.0041
   4534 O           -6.1268     7.3943    14.2479 O       5      r5    -0.4406
   4535 C           -0.2083     8.7367    14.3454 C       5      r5     0.1180
   4536 C           -0.2480     7.3285    14.6786 C       5      r5    -0.0003
   4537 C           -1.4961     7.2277    15.3776 C       5      r5    -0.0439
   4538 C           -2.0721     8.5240    15.4486 C       5      r5     0.1147
   4539 O           -1.4239     9.5852    14.8769 O       5      r5    -0.4886
   4540 O           -7.2240     3.8492    16.7706 O       5      r5    -0.5065
   4541 C           -7.6140     4.7872    17.7315 C       5      r5     0.1121
   4542 C           -8.6347     4.4128    18.6368 C       5      r5    -0.0387
   4543 C           -9.1897     3.1681    18.3116 C       5      r5    -0.0447
   4544 C           -8.2988     2.8098    17.2509 C       5      r5     0.0905
   4545 O           -5.2319     8.8780    11.4045 O       5      r5    -0.4418
   4546 C           -5.2746    10.3686    11.0089 C       5      r5     0.1155
   4547 C           -4.3562    11.0871    11.9286 C       5      r5     0.0004
   4548 C           -3.7286    10.1912    12.7224 C       5      r5    -0.0039
   4549 C           -4.2640     8.9524    12.3708 C       5      r5     0.1652
   4550 C           -8.8494     5.7993    13.6494 C       0      r0     0.1344
   4551 C           -9.3007     4.6328    13.3269 C       0      r0    -0.0248
   4552 C          -10.0445     4.3537    11.9843 C       0      r0    -0.0178
   4553 C           -9.3786     4.0468    10.8229 C       0      r0     0.1367
   4554 O           -8.9386     7.0341    12.8000 O       0      r0    -0.4401
   4555 C           -5.9312    11.0278    10.1247 C       0      r0    -0.0330
   4556 C           -8.6187     1.6608    16.7989 C       0      r0    -0.0337
   4557 H           -4.0314     4.8519    12.6722 H       0      r0     0.0388
   4558 H           -6.3740     4.0940    13.6157 H       0      r0     0.0597
   4559 H           -3.2909     6.0219    15.3660 H       0      r0     0.0260
   4560 H           -5.3866     4.7933    16.0239 H       0      r0     0.1022
   4561 H           -3.5469     9.6353    16.5459 H       0      r0     0.0712
   4562 H           -2.8106     8.1322    13.5927 H       0      r0     0.0579
   4563 H           -3.2626     7.0424    12.1264 H       0      r0     0.0768
   4564 H           -8.2144     4.8575    15.4988 H       0      r0     0.0901
   4565 H           -8.4283     6.6256    15.6727 H       0      r0     0.0884
   4566 H           -7.3072     6.5883   -18.5845 H       0      r0     0.0549
   4567 H            0.9725     5.6953    15.0967 H       0      r0     0.0874
   4568 H           -1.8905     6.3908    15.8787 H       0      r0     0.0310
   4569 H           -8.9726     5.0231   -17.9308 H       0      r0     0.0364
   4570 H          -10.0068     2.6173   -18.6010 H       0      r0     0.0464
   4571 H           -4.1290    12.1060    11.9581 H       0      r0     0.1083
   4572 H           -3.0193    10.4635    13.4181 H       0      r0     0.0956
   4573 H           -9.2099     3.9474    14.1768 H       0      r0     0.0384
   4574 H          -11.0900     4.4117    11.8790 H       0      r0     0.0624
   4575 H           -5.8180    12.1169    10.1331 H       0      r0     0.0466
   4576 H           -6.6054    10.5908     9.4364 H       0      r0     0.0551
   4577 H           -9.4709     1.0723    17.1190 H       0      r0     0.0888
   4578 H           -8.0838     1.2944    15.9678 H       0      r0     0.0730
   4579 C            8.2910     8.7792    14.3194 C       6      r6     0.1130
   4580 C            7.1539     8.2193    15.1697 C       6      r6    -0.0310
   4581 C            6.5356     7.0580    14.7411 C       6      r6    -0.0309
   4582 C            6.6582     6.7855    13.3248 C       6      r6    -0.0133
   4583 C            7.8012     7.5574    11.1525 C       5      r5     0.1523
   4584 O            8.8490     8.4383    11.0330 O       5      r5    -0.4942
   4585 C            8.5465     9.5190    11.8898 C       5      r5     0.1516
   4586 C            7.5427     9.1676    12.9475 C       6      r6     0.0094
   4587 C            6.8707     7.8473    12.2992 C       6      r6     0.0129
   4588 C            9.1457    10.7667    11.8075 C       0      r0     0.0133
   4589 C            8.6603    10.1245    14.9897 C       0      r0     0.0083
   4590 C            6.4073     5.4781    13.2044 C       0      r0    -0.0186
   4591 C            7.4755     6.7633    10.0888 C       0      r0     0.0359
   4592 O            9.4511     8.0088    14.0819 O       0      r0    -0.5970
   4593 C            7.8540    13.5891    13.8737 C       5      r5     0.1195
   4594 C            9.0477    14.0576    13.1550 C       5      r5    -0.0143
   4595 C            9.6253    13.0818    12.3562 C       5      r5    -0.0104
   4596 C            8.8390    11.9528    12.5418 C       5      r5     0.1295
   4597 O            7.6865    12.1412    13.4024 O       5      r5    -0.4958
   4598 O            5.2820     5.6622    10.6914 O       0      r0    -0.5995
   4599 C            6.4130     5.8745     9.9036 C       0      r0     0.1315
   4600 C            6.7930     5.2567     8.7179 C       0      r0    -0.0173
   4601 C            5.9318     4.2376     8.1154 C       0      r0    -0.0358
   4602 C            4.7100     3.7619     8.5493 C       0      r0    -0.0263
   4603 O            8.8578    11.1588    17.0920 O       0      r0    -0.4825
   4604 C            9.7195     9.5183   -17.8884 C       0      r0     0.2527
   4605 C            9.9081     8.6387    18.2424 C       0      r0     0.0024
   4606 C            9.4722     8.8488    16.8721 C       0      r0    -0.0104
   4607 C            9.0194    10.0440    16.3940 C       0      r0     0.1496
   4608 C            6.3846     4.4578    14.2439 C       3      r3    -0.0293
   4609 C            6.6755     3.9883    15.4512 C       3      r3    -0.0415
   4610 C            6.9711     1.8987    14.9244 C       0      r0     0.0039
   4611 C            8.4598     1.8093    15.4093 C       3      r3     0.1508
   4612 O            9.6906     2.0283    15.1962 O       3      r3    -0.4901
   4613 C            8.6237     1.2968    16.6051 C       3      r3     0.0244
   4614 C            7.1670    14.1665    14.6924 C       0      r0    -0.0324
   4615 H            7.0625     8.5163    16.1879 H       0      r0     0.0549
   4616 H            5.9374     6.4005    15.3486 H       0      r0     0.0674
   4617 H            6.8446     9.9764    12.9968 H       0      r0     0.0936
   4618 H            5.8398     8.0264    11.9288 H       0      r0     0.1542
   4619 H            9.9150    10.6648    11.0839 H       0      r0     0.0848
   4620 H            9.4524    10.5532    14.3643 H       0      r0     0.0706
   4621 H            7.8584    10.8962    14.8210 H       0      r0     0.1302
   4622 H            4.8601     4.8256    10.3087 H       0      r0     0.2528
   4623 H            6.4174     5.1501    12.0969 H       0      r0     0.1163
   4624 H            8.2485     6.8590     9.2771 H       0      r0     0.1249
   4625 H            9.4701    15.0304    13.2673 H       0      r0     0.0251
   4626 H           10.5221    13.1432    11.7655 H       0      r0     0.0404
   4627 H            7.7063     5.4882     8.2059 H       0      r0     0.0905
   4628 H            6.3523     3.7222     7.2237 H       0      r0     0.0730
   4629 H           10.0153     7.6869   -18.6905 H       0      r0     0.1012
   4630 H            9.5838     8.0233    16.1548 H       0      r0     0.0963
   4631 H            7.2019     4.3844    16.3202 H       0      r0     0.0620
   4632 H            0.4272    -0.4910    16.2745 H       0      r0     0.3359
   4633 H            7.7252     1.0389    17.1373 H       0      r0     0.0565
   4634 H            9.5208     1.1597    17.2171 H       0      r0     0.1305
   4635 H            7.3244    15.2173    14.8804 H       0      r0     0.0221
   4636 H            6.2768    13.7448    15.1353 H       0      r0     0.1045
   4637 C            1.5503     1.0954    16.3097 C       6      r6     0.1225
   4638 C            0.9298     2.4939    16.3116 C       6      r6    -0.0213
   4639 C           -0.1495     2.8399    15.6061 C       6      r6    -0.0518
   4640 C           -0.6096     1.6260    14.9974 C       6      r6    -0.0373
   4641 C           -0.2377    -0.7309    14.1204 C       5      r5     0.1465
   4642 O            0.6154    -1.5437    14.7138 O       5      r5    -0.5065
   4643 C            1.8984    -0.8324    14.7029 C       5      r5     0.1260
   4644 C            1.6911     0.6674    14.7423 C       6      r6    -0.0024
   4645 C            0.1939     0.6734    14.2377 C       6      r6    -0.0120
   4646 C            3.1290    -1.3537    14.5528 C       0      r0    -0.0097
   4647 C            2.9678     1.1640    16.8676 C       0      r0     0.0079
   4648 C           -2.1464     1.4441    14.9244 C       0      r0    -0.0379
   4649 C           -1.3155    -1.1446    13.2356 C       0      r0     0.0124
   4650 O            0.7381     0.1110    16.9543 O       0      r0    -0.6114
   4651 C            6.0305     0.8336    14.6317 C       5      r5     0.1397
   4652 C            6.5849    -0.4810    14.5056 C       5      r5    -0.0094
   4653 C            5.5822    -1.4166    14.3421 C       5      r5    -0.0168
   4654 C            4.4263    -0.6756    14.4380 C       5      r5     0.1110
   4655 O            4.5976     0.7951    14.4585 O       5      r5    -0.4796
   4656 O           -1.4317     1.1234    11.6831 O       0      r0    -0.4866
   4657 C           -1.8951    -0.3543    12.2490 C       0      r0     0.0964
   4658 C           -3.0068    -0.9767    11.8633 C       0      r0     0.0188
   4659 C           -3.5035    -0.1085    10.7884 C       0      r0     0.0360
   4660 C           -2.6707     1.0033    10.6743 C       0      r0     0.1577
   4661 O            4.1982     1.9672   -18.6782 O       0      r0    -0.4626
   4662 C            2.8391     2.2611   -16.2245 C       0      r0     0.0035
   4663 C            1.6881     1.9956   -17.0457 C       0      r0    -0.0313
   4664 C            1.8539     1.7183   -18.4003 C       0      r0     0.0002
   4665 C            3.1150     1.7514    18.3060 C       0      r0     0.1762
   4666 C           -2.8645     1.7692    16.2909 C       5      r5     0.1352
   4667 C           -2.2585     1.1366    17.3817 C       5      r5    -0.0239
   4668 C           -3.0934     1.2994    18.4179 C       5      r5    -0.0246
   4669 C           -4.2404     2.1032    17.9069 C       5      r5     0.0876
   4670 O           -3.9393     2.5199    16.3821 O       5      r5    -0.4733
   4671 C           -5.2419     2.4553    18.4899 C       0      r0    -0.0038
   4672 C            6.1752     2.9897    14.5333 C       3      r3     0.0102
   4673 H            1.3289     3.3547    16.8737 H       0      r0     0.0746
   4674 H           -0.6875     3.7639    15.7200 H       0      r0     0.0554
   4675 H            2.3101     1.2671    14.0602 H       0      r0     0.0718
   4676 H            0.0104     1.0276    13.1575 H       0      r0     0.0904
   4677 H            3.0015    -2.4315    14.5374 H       0      r0     0.0674
   4678 H            3.5638     0.2986    16.7141 H       0      r0     0.0833
   4679 H            3.6754     1.6754    16.1979 H       0      r0     0.1014
   4680 H           -2.5865     1.8127    13.9277 H       0      r0     0.0754
   4681 H           -2.3377     0.4223    14.6001 H       0      r0     0.0562
   4682 H           -1.6980    -2.1567    13.3671 H       0      r0     0.1017
   4683 H            7.6270    -0.7304    14.6072 H       0      r0     0.0520
   4684 H            5.6447    -2.4465    14.2597 H       0      r0     0.0619
   4685 H           -3.4071    -1.9267    12.1926 H       0      r0     0.1448
   4686 H           -4.4006    -0.2748    10.2521 H       0      r0     0.1592
   4687 H            0.7200     1.9012   -16.6154 H       0      r0     0.0629
   4688 H            0.9272     1.4415    18.5404 H       0      r0     0.1027
   4689 H           -1.3560     0.5910    17.3647 H       0      r0     0.0902
   4690 H           -3.0078     1.0146   -17.9955 H       0      r0     0.1119
   4691 H           -5.4855     2.1661   -17.8861 H       0      r0     0.0726
   4692 H           -5.9931     3.0760    17.9239 H       0      r0     0.1422
   4693 H            9.4343     7.9298    13.1105 H       0      r0     0.2960
   4694 H            9.3637     4.6429    18.4481 H       0      r0     0.2560
   4695 B           18.6413   -18.9675    18.7012 B       8     BOX     0.0000
   4696 B          -18.6413   -18.9675    18.7012 B       8     BOX     0.0000
   4697 B          -18.6413    18.9675    18.7012 B       8     BOX     0.0000
   4698 B           18.6413    18.9675    18.7012 B       8     BOX     0.0000
   4699 B           18.6413   -18.9675   -18.7012 B       8     BOX     0.0000
   4700 B          -18.6413   -18.9675   -18.7012 B       8     BOX     0.0000
   4701 B          -18.6413    18.9675   -18.7012 B       8     BOX     0.0000
   4702 B           18.6413    18.9675   -18.7012 B       8     BOX     0.0000
@<TRIPOS>BOND
     1      1      2      1
     2      1      7      1
     3      1     14      1
     4      2     20      1
     5      3      4      1
     6      3     21      1
     7      4      5      1
     8      4      6      1
     9      5      8      1
    10      5     22      1
    11      5     23      1
    12      8      9      1
    13      8     12      1
    14      9     10      1
    15      9     24      1
    16     10     11      1
    17     10     25      1
    18     11     12      1
    19     11     13      1
    20     13     26      1
    21     13     27      1
    22     14     18      1
    23     14     29      1
    24     15     16      1
    25     15    402      1
    26     16     17      1
    27     16     30      1
    28     17     18      1
    29     17     31      1
    30     18     19      1
    31     19   1070      1
    32     32     33      1
    33     32     38      1
    34     33     34      1
    35     33     51      1
    36     34     35      1
    37     34     52      1
    38     35     36      1
    39     35     37      1
    40     36     39      1
    41     36     53      1
    42     36     54      1
    43     39     40      1
    44     39     43      1
    45     40     41      1
    46     40     55      1
    47     41     42      1
    48     41     56      1
    49     42     43      1
    50     42     44      1
    51     44     57      1
    52     44     58      1
    53     45     49      1
    54     45     59      1
    55     45     60      1
    56     46     47      1
    57     46    421      1
    58     46   3038      1
    59     47     48      1
    60     47     61      1
    61     48     49      1
    62     48     62      1
    63     49     50      1
    64     50   3702      1
    65     63     64      1
    66     63     67      1
    67     63     68      1
    68     64     65      1
    69     65     66      1
    70     65     74      1
    71     66     67      1
    72     66     81      1
    73     67     82      1
    74     68     75      1
    75     68     83      1
    76     69     70      1
    77     69     73      1
    78     69     74      1
    79     70     71      1
    80     71     72      1
    81     71   3977      1
    82     72     73      1
    83     72     84      1
    84     73     85      1
    85     74     86      1
    86     75     76      1
    87     75     79      1
    88     76     77      1
    89     76     87      1
    90     77     78      1
    91     77     88      1
    92     78     79      1
    93     78     80      1
    94     80     89      1
    95     80     90      1
    96     91     92      1
    97     91     95      1
    98     91     96      1
    99     92     93      1
   100     93     94      1
   101     94     95      1
   102     95    110      1
   103     96    103      1
   104     96    111      1
   105     97     98      1
   106     97    101      1
   107     97    102      1
   108     98     99      1
   109     99    100      1
   110    100    101      1
   111    100    112      1
   112    101    113      1
   113    102    114      1
   114    103    104      1
   115    103    107      1
   116    104    105      1
   117    104    115      1
   118    105    106      1
   119    105    116      1
   120    106    107      1
   121    106    108      1
   122    108    117      1
   123    108    118      1
   124    119    123      1
   125    119    124      1
   126    120    121      1
   127    120   1927      1
   128    121    122      1
   129    121    125      1
   130    122    123      1
   131    122    126      1
   132    123    127      1
   133    124    128      1
   134    125    129      1
   135    125   3442      1
   136    130    131      1
   137    130    134      1
   138    130    135      1
   139    131    132      1
   140    132    133      1
   141    132    136      1
   142    133    134      1
   143    133    137      1
   144    135   1926      1
   145    136    140      1
   146    136   3799      1
   147    141    146      1
   148    142    143      1
   149    142   3798      1
   150    143    147      1
   151    144    145      1
   152    144    148      1
   153    145    149      1
   154    146    150      1
   155    147    151      1
   156    152    153      1
   157    152    159      1
   158    152    162      1
   159    152    165      1
   160    153    154      1
   161    153    188      1
   162    154    155      1
   163    154    189      1
   164    155    160      1
   165    155    163      1
   166    155    165      1
   167    156    157      1
   168    156    160      1
   169    156    164      1
   170    157    158      1
   171    158    159      1
   172    158    161      1
   173    159    160      1
   174    159    190      1
   175    160    191      1
   176    161    169      1
   177    161    192      1
   178    162    180      1
   179    162    193      1
   180    162    194      1
   181    163    181      1
   182    163    195      1
   183    163    196      1
   184    164    172      1
   185    164    197      1
   186    166    167      1
   187    166   3228      1
   188    167    168      1
   189    167    198      1
   190    168    199      1
   191    169    170      1
   192    171    172      1
   193    171    175      1
   194    172    173      1
   195    173    174      1
   196    173    200      1
   197    174    175      1
   198    174    201      1
   199    175    187      1
   200    176    177      1
   201    176    180      1
   202    177    178      1
   203    177    186      1
   204    178    179      1
   205    178    202      1
   206    179    180      1
   207    179    203      1
   208    181    182      1
   209    181    185      1
   210    182    183      1
   211    182    204      1
   212    183    184      1
   213    183    205      1
   214    184    185      1
   215    184    225      1
   216    184    256      1
   217    187    208      1
   218    187    209      1
   219    210    211      1
   220    210    220      1
   221    211    246      1
   222    212    213      1
   223    212    247      1
   224    213    218      1
   225    213    221      1
   226    213    223      1
   227    214    215      1
   228    214    218      1
   229    214    222      1
   230    215    216      1
   231    216    217      1
   232    216    219      1
   233    217    218      1
   234    218    249      1
   235    219    250      1
   236    220    238      1
   237    220    251      1
   238    220    252      1
   239    221    239      1
   240    221    253      1
   241    221    254      1
   242    222    230      1
   243    222    255      1
   244    224    225      1
   245    224    228      1
   246    225    226      1
   247    226    227      1
   248    226    257      1
   249    227    228      1
   250    229    230      1
   251    229    233      1
   252    230    231      1
   253    231    232      1
   254    231    258      1
   255    232    233      1
   256    232    259      1
   257    233    245      1
   258    234    235      1
   259    234    238      1
   260    235    236      1
   261    235    244      1
   262    236    237      1
   263    236    260      1
   264    237    238      1
   265    239    240      1
   266    239    243      1
   267    240    241      1
   268    240    262      1
   269    241    242      1
   270    241    263      1
   271    243   3502      1
   272    244    265      1
   273    245    266      1
   274    245    267      1
   275    268    269      1
   276    268    275      1
   277    268    278      1
   278    269    270      1
   279    269    304      1
   280    270    271      1
   281    270    305      1
   282    271    276      1
   283    271    279      1
   284    272    273      1
   285    272    276      1
   286    272    280      1
   287    273    274      1
   288    274    275      1
   289    274    277      1
   290    275    276      1
   291    275    306      1
   292    276    307      1
   293    277    285      1
   294    277    308      1
   295    278    296      1
   296    278    309      1
   297    278    310      1
   298    279    297      1
   299    279    312      1
   300    280    288      1
   301    280    313      1
   302    281    382      1
   303    281   3254      1
   304    282    283      1
   305    282    286      1
   306    282    303      1
   307    283    284      1
   308    283    314      1
   309    284    285      1
   310    284    315      1
   311    285    286      1
   312    287    288      1
   313    287    311      1
   314    288    289      1
   315    289    290      1
   316    289    316      1
   317    290    291      1
   318    290    317      1
   319    291   1701      1
   320    292    293      1
   321    292    296      1
   322    293    294      1
   323    294    295      1
   324    294    318      1
   325    295    296      1
   326    295    319      1
   327    297    298      1
   328    297    361      1
   329    298    320      1
   330    298    361      1
   331    299    300      1
   332    299    340      1
   333    299    361      1
   334    300    301      1
   335    300    302      1
   336    301   3175      1
   337    302    322      1
   338    302    323      1
   339    303    324      1
   340    303    325      1
   341    321    339      1
   342    326    327      1
   343    326    333      1
   344    326    336      1
   345    326    339      1
   346    327    328      1
   347    327    362      1
   348    328    329      1
   349    328    363      1
   350    329    334      1
   351    329    337      1
   352    330    331      1
   353    330    334      1
   354    330    338      1
   355    331    332      1
   356    332    333      1
   357    332    335      1
   358    333    334      1
   359    333    364      1
   360    334    365      1
   361    335    343      1
   362    335    366      1
   363    336    354      1
   364    336    367      1
   365    336    368      1
   366    337    355      1
   367    337    369      1
   368    337    370      1
   369    338    346      1
   370    338    371      1
   371    340    341      1
   372    340    344      1
   373    341    342      1
   374    341    372      1
   375    342    343      1
   376    342    373      1
   377    343    344      1
   378    345    346      1
   379    345    349      1
   380    346    347      1
   381    347    348      1
   382    347    374      1
   383    348    349      1
   384    348    375      1
   385    350    354      1
   386    351    352      1
   387    351   1746      1
   388    352    353      1
   389    352    376      1
   390    355    356      1
   391    356    378      1
   392    357    358      1
   393    357    379      1
   394    358    359      1
   395    358    360      1
   396    360    380      1
   397    360    381      1
   398    383   3179      1
   399    384    385      1
   400    384    390      1
   401    384    397      1
   402    385    386      1
   403    385    403      1
   404    386    387      1
   405    386    404      1
   406    387    389      1
   407    388    391      1
   408    388    405      1
   409    389    943      1
   410    391    392      1
   411    391    395      1
   412    392    393      1
   413    392    407      1
   414    393    394      1
   415    393    408      1
   416    394    395      1
   417    394    396      1
   418    396    409      1
   419    396    410      1
   420    397    411      1
   421    397    412      1
   422    398    399      1
   423    398   1818      1
   424    400    414      1
   425    401    402      1
   426    415    416      1
   427    415    428      1
   428    416    417      1
   429    416    434      1
   430    417    418      1
   431    417    435      1
   432    418    419      1
   433    418    420      1
   434    419    422      1
   435    419    436      1
   436    419    437      1
   437    420   3658      1
   438    422    423      1
   439    422    426      1
   440    423    424      1
   441    423    438      1
   442    424    425      1
   443    424    439      1
   444    425    426      1
   445    425    427      1
   446    427    440      1
   447    427    441      1
   448    428    432      1
   449    428    442      1
   450    428    443      1
   451    429    430      1
   452    429   2805      1
   453    430    431      1
   454    430    444      1
   455    446    447      1
   456    446    450      1
   457    446    451      1
   458    448    449      1
   459    448    457      1
   460    449    464      1
   461    450    465      1
   462    451    458      1
   463    451    466      1
   464    452    453      1
   465    452    456      1
   466    452    457      1
   467    453    454      1
   468    454    455      1
   469    454   1722      1
   470    455    456      1
   471    455    467      1
   472    456    468      1
   473    457    469      1
   474    458    459      1
   475    458    462      1
   476    459    460      1
   477    459    470      1
   478    460    461      1
   479    460    471      1
   480    461    462      1
   481    461    463      1
   482    463    472      1
   483    463    473      1
   484    474    475      1
   485    474    478      1
   486    474    479      1
   487    475    476      1
   488    476    477      1
   489    476    485      1
   490    477    478      1
   491    477    492      1
   492    478    493      1
   493    479    486      1
   494    479    494      1
   495    480    481      1
   496    480    484      1
   497    480    485      1
   498    481   1284      1
   499    482    483      1
   500    482   4436      1
   501    483    484      1
   502    483    495      1
   503    484    496      1
   504    485    497      1
   505    486    487      1
   506    486    490      1
   507    487    488      1
   508    487    498      1
   509    488    489      1
   510    488    499      1
   511    489    490      1
   512    489    491      1
   513    491    500      1
   514    491    501      1
   515    502    503      1
   516    502    506      1
   517    502    507      1
   518    503    504      1
   519    504    505      1
   520    504    508      1
   521    505    506      1
   522    505    509      1
   523    506    510      1
   524    507    511      1
   525    507   3604      1
   526    508    512      1
   527    513    514      1
   528    513    517      1
   529    513    518      1
   530    514    515      1
   531    515    516      1
   532    515    519      1
   533    516    517      1
   534    516    520      1
   535    517    521      1
   536    518    522      1
   537    519    523      1
   538    519   3847      1
   539    524    525      1
   540    524    528      1
   541    524    529      1
   542    525    526      1
   543    526    527      1
   544    526    530      1
   545    527    528      1
   546    527    531      1
   547    528    532      1
   548    529    533      1
   549    529   2834      1
   550    535    536      1
   551    535    539      1
   552    535    540      1
   553    536    537      1
   554    537    538      1
   555    537    541      1
   556    538    539      1
   557    538    542      1
   558    539    543      1
   559    540    544      1
   560    540   2702      1
   561    541    545      1
   562    546    547      1
   563    546    553      1
   564    546    556      1
   565    546    559      1
   566    547    548      1
   567    547    582      1
   568    548    549      1
   569    548    583      1
   570    549    554      1
   571    549    557      1
   572    549    559      1
   573    550    551      1
   574    550    554      1
   575    550    558      1
   576    551    552      1
   577    552    553      1
   578    552    555      1
   579    553    554      1
   580    553    584      1
   581    554    585      1
   582    555    563      1
   583    555    586      1
   584    556    574      1
   585    556    587      1
   586    556    588      1
   587    557    575      1
   588    557    589      1
   589    557    590      1
   590    558    591      1
   591    560    902      1
   592    561    562      1
   593    561    592      1
   594    562    563      1
   595    563    564      1
   596    564   1600      1
   597    565    566      1
   598    565    569      1
   599    566    567      1
   600    567    568      1
   601    567    594      1
   602    568    569      1
   603    568    595      1
   604    569    581      1
   605    570    571      1
   606    570    574      1
   607    571    572      1
   608    571    580      1
   609    572    573      1
   610    572    596      1
   611    573    574      1
   612    573    597      1
   613    575    576      1
   614    575    579      1
   615    576    577      1
   616    576    598      1
   617    577    578      1
   618    577    599      1
   619    578    579      1
   620    578    619      1
   621    578    650      1
   622    580    600      1
   623    580    601      1
   624    581    602      1
   625    581    603      1
   626    604    605      1
   627    604    611      1
   628    604    614      1
   629    604    617      1
   630    605    606      1
   631    605    640      1
   632    606    607      1
   633    607    612      1
   634    607    615      1
   635    608    609      1
   636    608    612      1
   637    608    616      1
   638    609    610      1
   639    610    611      1
   640    610    613      1
   641    611    612      1
   642    611    642      1
   643    612    643      1
   644    613    621      1
   645    613    644      1
   646    614    632      1
   647    614    645      1
   648    614    646      1
   649    615    633      1
   650    615    647      1
   651    615    648      1
   652    616    624      1
   653    616    649      1
   654    618    619      1
   655    618    622      1
   656    619    620      1
   657    620    621      1
   658    620    651      1
   659    621    622      1
   660    623    624      1
   661    623    627      1
   662    624    625      1
   663    625    626      1
   664    625    652      1
   665    626    627      1
   666    626    653      1
   667    627    639      1
   668    628    629      1
   669    628    632      1
   670    629    630      1
   671    629    638      1
   672    630    631      1
   673    630    654      1
   674    631    632      1
   675    631    655      1
   676    633    634      1
   677    634    635      1
   678    634    656      1
   679    635    657      1
   680    636    876      1
   681    637   3297      1
   682    638    658      1
   683    638    659      1
   684    639    660      1
   685    639    661      1
   686    662    663      1
   687    662    669      1
   688    662    672      1
   689    662    675      1
   690    663    664      1
   691    663    698      1
   692    664    665      1
   693    664    699      1
   694    665    670      1
   695    665    673      1
   696    666    667      1
   697    666    670      1
   698    666    674      1
   699    667    668      1
   700    668    669      1
   701    668    671      1
   702    669    670      1
   703    669    700      1
   704    671    679      1
   705    672    690      1
   706    672    703      1
   707    672    704      1
   708    673    691      1
   709    673    705      1
   710    673    706      1
   711    674    682      1
   712    674    707      1
   713    675    776      1
   714    676    677      1
   715    676    680      1
   716    676    697      1
   717    677    678      1
   718    678    679      1
   719    679    680      1
   720    681   3907      1
   721    682    683      1
   722    683    684      1
   723    683    710      1
   724    684    685      1
   725    684    711      1
   726    686    690      1
   727    687    688      1
   728    687   1591      1
   729    688    689      1
   730    688    712      1
   731    689    690      1
   732    689    713      1
   733    691    692      1
   734    691    755      1
   735    692    714      1
   736    692    755      1
   737    693    694      1
   738    693    734      1
   739    693    755      1
   740    694    695      1
   741    694    696      1
   742    695    777      1
   743    696    716      1
   744    696    717      1
   745    697    718      1
   746    697    719      1
   747    720    721      1
   748    720    727      1
   749    720    730      1
   750    720    733      1
   751    721    722      1
   752    721    756      1
   753    722    723      1
   754    722    757      1
   755    723    728      1
   756    723    731      1
   757    724    728      1
   758    726    727      1
   759    726    729      1
   760    727    728      1
   761    727    758      1
   762    729    737      1
   763    729    760      1
   764    730    748      1
   765    730    761      1
   766    730    762      1
   767    731    749      1
   768    731    763      1
   769    731    764      1
   770    734    735      1
   771    734    738      1
   772    735    736      1
   773    735    766      1
   774    736    737      1
   775    736    767      1
   776    737    738      1
   777    739    740      1
   778    739    743      1
   779    741    768      1
   780    742    743      1
   781    742    769      1
   782    744    745      1
   783    744    748      1
   784    745    746      1
   785    746    747      1
   786    746    770      1
   787    747    748      1
   788    747    771      1
   789    749    750      1
   790    749    753      1
   791    750    751      1
   792    750    772      1
   793    752    754      1
   794    754    774      1
   795    754    775      1
   796    778    779      1
   797    778    784      1
   798    778    791      1
   799    779    780      1
   800    779    797      1
   801    780    781      1
   802    780    798      1
   803    781    782      1
   804    781    783      1
   805    782    785      1
   806    782    799      1
   807    782    800      1
   808    783   2125      1
   809    785    786      1
   810    785    789      1
   811    786    787      1
   812    786    801      1
   813    787    788      1
   814    787    802      1
   815    788    789      1
   816    788    790      1
   817    790    803      1
   818    790    804      1
   819    791    795      1
   820    791    805      1
   821    791    806      1
   822    792    793      1
   823    792    796      1
   824    793    794      1
   825    793    807      1
   826    794    795      1
   827    794    808      1
   828    795    796      1
   829    809    810      1
   830    809    815      1
   831    809    822      1
   832    810    811      1
   833    810    828      1
   834    811    812      1
   835    812    813      1
   836    812    814      1
   837    813    816      1
   838    813    830      1
   839    813    831      1
   840    816    817      1
   841    816    820      1
   842    817    818      1
   843    817    832      1
   844    818    819      1
   845    818    833      1
   846    819    820      1
   847    819    821      1
   848    821    834      1
   849    821    835      1
   850    822    826      1
   851    822    836      1
   852    822    837      1
   853    823    824      1
   854    824    825      1
   855    824    838      1
   856    825    826      1
   857    825    839      1
   858    826    827      1
   859    827   2467      1
   860    840    841      1
   861    840    844      1
   862    840    845      1
   863    841    842      1
   864    842    843      1
   865    842    851      1
   866    843    844      1
   867    843    858      1
   868    844    859      1
   869    845    852      1
   870    845    860      1
   871    846    847      1
   872    846    850      1
   873    846    851      1
   874    847   1128      1
   875    848    849      1
   876    848   1560      1
   877    849    850      1
   878    849    861      1
   879    850    862      1
   880    851    863      1
   881    852    853      1
   882    852    856      1
   883    853    854      1
   884    853    864      1
   885    854    855      1
   886    854    865      1
   887    855    856      1
   888    855    857      1
   889    857    866      1
   890    857    867      1
   891    868    869      1
   892    868    872      1
   893    868    873      1
   894    869    870      1
   895    870    871      1
   896    870    879      1
   897    871    872      1
   898    871    886      1
   899    872    887      1
   900    873    880      1
   901    874    875      1
   902    874    878      1
   903    874    879      1
   904    875    876      1
   905    876    877      1
   906    877    878      1
   907    877    889      1
   908    878    890      1
   909    879    891      1
   910    880    884      1
   911    881    892      1
   912    882    883      1
   913    882    893      1
   914    883    884      1
   915    883    885      1
   916    885    894      1
   917    885    895      1
   918    896    897      1
   919    896    900      1
   920    896    901      1
   921    897    898      1
   922    898    899      1
   923    898    902      1
   924    899    900      1
   925    899    903      1
   926    900    904      1
   927    901    905      1
   928    902    906      1
   929    907    908      1
   930    907    911      1
   931    907    912      1
   932    908    909      1
   933    909    910      1
   934    909    913      1
   935    910    911      1
   936    910    914      1
   937    912    916      1
   938    913    917      1
   939    913   4219      1
   940    918    919      1
   941    918    922      1
   942    918    923      1
   943    919    920      1
   944    920    921      1
   945    920    924      1
   946    921    922      1
   947    921    925      1
   948    922    926      1
   949    923    927      1
   950    923   2361      1
   951    924    928      1
   952    924   1210      1
   953    929    930      1
   954    929    936      1
   955    929    939      1
   956    929    942      1
   957    930    931      1
   958    930    965      1
   959    931    932      1
   960    931    966      1
   961    932    937      1
   962    932    942      1
   963    933    934      1
   964    933    941      1
   965    935    936      1
   966    935    938      1
   967    936    937      1
   968    936    967      1
   969    937    968      1
   970    938    946      1
   971    938    969      1
   972    939    957      1
   973    939    970      1
   974    939    971      1
   975    940    958      1
   976    940    972      1
   977    940    973      1
   978    941    949      1
   979    941    974      1
   980    943    944      1
   981    943    947      1
   982    944    945      1
   983    944    975      1
   984    945    946      1
   985    945    976      1
   986    946    947      1
   987    948    949      1
   988    948    952      1
   989    949    950      1
   990    950    951      1
   991    950    977      1
   992    951    952      1
   993    951    978      1
   994    952    964      1
   995    953    954      1
   996    953    957      1
   997    954    955      1
   998    954    963      1
   999    955    956      1
  1000    955    979      1
  1001    956    957      1
  1002    956    980      1
  1003    958    962      1
  1004    959    960      1
  1005    959    981      1
  1006    960    961      1
  1007    960    982      1
  1008    961   1002      1
  1009    963    983      1
  1010    963    984      1
  1011    964    985      1
  1012    964    986      1
  1013    987    988      1
  1014    987    994      1
  1015    987    997      1
  1016    987   1000      1
  1017    988    989      1
  1018    988   1023      1
  1019    989    990      1
  1020    989   1024      1
  1021    990    995      1
  1022    990    998      1
  1023    990   1000      1
  1024    991    992      1
  1025    991    995      1
  1026    991    999      1
  1027    992    993      1
  1028    993    994      1
  1029    993    996      1
  1030    994    995      1
  1031    994   1025      1
  1032    995   1026      1
  1033    996   1004      1
  1034    996   1027      1
  1035    997   1015      1
  1036    997   1028      1
  1037    997   1029      1
  1038    998   1016      1
  1039    998   1030      1
  1040    998   1031      1
  1041    999   1007      1
  1042    999   1032      1
  1043   1001   1002      1
  1044   1001   1005      1
  1045   1001   2084      1
  1046   1002   1003      1
  1047   1003   1004      1
  1048   1003   1034      1
  1049   1004   1005      1
  1050   1006   1007      1
  1051   1006   1742      1
  1052   1007   1008      1
  1053   1008   1009      1
  1054   1008   1035      1
  1055   1009   1010      1
  1056   1009   1036      1
  1057   1010   1022      1
  1058   1011   1012      1
  1059   1011   1015      1
  1060   1012   1013      1
  1061   1012   1021      1
  1062   1013   1014      1
  1063   1013   1037      1
  1064   1014   1015      1
  1065   1014   1038      1
  1066   1016   1017      1
  1067   1016   1020      1
  1068   1017   1018      1
  1069   1017   1039      1
  1070   1018   1019      1
  1071   1018   1040      1
  1072   1019   3571      1
  1073   1020   4457      1
  1074   1021   1041      1
  1075   1021   1042      1
  1076   1022   1043      1
  1077   1022   1044      1
  1078   1045   1046      1
  1079   1045   1052      1
  1080   1045   1055      1
  1081   1045   1058      1
  1082   1046   1047      1
  1083   1046   1081      1
  1084   1047   1048      1
  1085   1047   1082      1
  1086   1048   1053      1
  1087   1048   1056      1
  1088   1049   1050      1
  1089   1049   1053      1
  1090   1049   1057      1
  1091   1050   1051      1
  1092   1051   1052      1
  1093   1051   1054      1
  1094   1052   1053      1
  1095   1052   1083      1
  1096   1053   1084      1
  1097   1054   1062      1
  1098   1054   1085      1
  1099   1055   1073      1
  1100   1055   1086      1
  1101   1055   1087      1
  1102   1056   1074      1
  1103   1056   1089      1
  1104   1057   1065      1
  1105   1057   1090      1
  1106   1058   1159      1
  1107   1059   1080      1
  1108   1060   1091      1
  1109   1061   1092      1
  1110   1062   1063      1
  1111   1064   1065      1
  1112   1064   1088      1
  1113   1065   1066      1
  1114   1066   1067      1
  1115   1066   1093      1
  1116   1067   1068      1
  1117   1067   1094      1
  1118   1068   2478      1
  1119   1069   3692      1
  1120   1071   1072      1
  1121   1071   1095      1
  1122   1072   1073      1
  1123   1072   1096      1
  1124   1074   1075      1
  1125   1074   1138      1
  1126   1075   1097      1
  1127   1075   1138      1
  1128   1076   1077      1
  1129   1076   1117      1
  1130   1076   1138      1
  1131   1077   1078      1
  1132   1077   1079      1
  1133   1078   1160      1
  1134   1079   1099      1
  1135   1079   1100      1
  1136   1080   1102      1
  1137   1098   1116      1
  1138   1103   1104      1
  1139   1103   1110      1
  1140   1103   1113      1
  1141   1103   1116      1
  1142   1104   1105      1
  1143   1104   1139      1
  1144   1105   1106      1
  1145   1105   1140      1
  1146   1106   1111      1
  1147   1106   1114      1
  1148   1107   1108      1
  1149   1107   1111      1
  1150   1107   1115      1
  1151   1108   1109      1
  1152   1109   1110      1
  1153   1109   1112      1
  1154   1110   1111      1
  1155   1110   1141      1
  1156   1111   1142      1
  1157   1112   1120      1
  1158   1112   1143      1
  1159   1113   1131      1
  1160   1113   1144      1
  1161   1113   1145      1
  1162   1114   1132      1
  1163   1114   1147      1
  1164   1115   1123      1
  1165   1115   1148      1
  1166   1117   1118      1
  1167   1117   1121      1
  1168   1118   1119      1
  1169   1118   1149      1
  1170   1119   1120      1
  1171   1119   1150      1
  1172   1120   1121      1
  1173   1122   1123      1
  1174   1122   1146      1
  1175   1123   1124      1
  1176   1124   1125      1
  1177   1124   1151      1
  1178   1126   3669      1
  1179   1127   1131      1
  1180   1128   1129      1
  1181   1129   1130      1
  1182   1129   1153      1
  1183   1130   1131      1
  1184   1130   1154      1
  1185   1132   1133      1
  1186   1132   1136      1
  1187   1133   1155      1
  1188   1134   1135      1
  1189   1134   1156      1
  1190   1135   1137      1
  1191   1137   1157      1
  1192   1137   1158      1
  1193   1161   1162      1
  1194   1161   1167      1
  1195   1161   1174      1
  1196   1162   1163      1
  1197   1162   1180      1
  1198   1163   1164      1
  1199   1163   1181      1
  1200   1164   1165      1
  1201   1164   1166      1
  1202   1165   1168      1
  1203   1165   1182      1
  1204   1165   1183      1
  1205   1168   1169      1
  1206   1168   1172      1
  1207   1169   1170      1
  1208   1170   1171      1
  1209   1170   1185      1
  1210   1171   1172      1
  1211   1171   1173      1
  1212   1173   1186      1
  1213   1173   1187      1
  1214   1174   1178      1
  1215   1174   1188      1
  1216   1174   1189      1
  1217   1175   1176      1
  1218   1176   1177      1
  1219   1176   1190      1
  1220   1177   1178      1
  1221   1177   1191      1
  1222   1178   1179      1
  1223   1179   1285      1
  1224   1192   1193      1
  1225   1192   1198      1
  1226   1192   1205      1
  1227   1193   1194      1
  1228   1193   1211      1
  1229   1194   1195      1
  1230   1194   1212      1
  1231   1195   1196      1
  1232   1195   1197      1
  1233   1196   1199      1
  1234   1196   1213      1
  1235   1196   1214      1
  1236   1199   1200      1
  1237   1199   1203      1
  1238   1200   1201      1
  1239   1200   1215      1
  1240   1201   1202      1
  1241   1201   1216      1
  1242   1202   1203      1
  1243   1202   1204      1
  1244   1204   1217      1
  1245   1204   1218      1
  1246   1206   1868      1
  1247   1207   1208      1
  1248   1207   1221      1
  1249   1208   1222      1
  1250   1209   1210      1
  1251   1223   1224      1
  1252   1223   1227      1
  1253   1223   1228      1
  1254   1224   1225      1
  1255   1225   1226      1
  1256   1225   1234      1
  1257   1226   1227      1
  1258   1226   1241      1
  1259   1227   1242      1
  1260   1228   1235      1
  1261   1228   1243      1
  1262   1229   1230      1
  1263   1229   1233      1
  1264   1229   1234      1
  1265   1230   4357      1
  1266   1231   1232      1
  1267   1232   1233      1
  1268   1233   1245      1
  1269   1234   1246      1
  1270   1235   1236      1
  1271   1235   1239      1
  1272   1236   1237      1
  1273   1236   1247      1
  1274   1237   1238      1
  1275   1237   1248      1
  1276   1238   1239      1
  1277   1238   1240      1
  1278   1240   1249      1
  1279   1240   1250      1
  1280   1251   1252      1
  1281   1251   1255      1
  1282   1251   1256      1
  1283   1253   1262      1
  1284   1254   1255      1
  1285   1255   1270      1
  1286   1256   1263      1
  1287   1256   1271      1
  1288   1257   1258      1
  1289   1257   1261      1
  1290   1257   1262      1
  1291   1259   1260      1
  1292   1259   1723      1
  1293   1260   1261      1
  1294   1260   1272      1
  1295   1261   1273      1
  1296   1262   1274      1
  1297   1263   1264      1
  1298   1263   1267      1
  1299   1264   1265      1
  1300   1265   1266      1
  1301   1266   1267      1
  1302   1266   1268      1
  1303   1268   1277      1
  1304   1268   1278      1
  1305   1279   1280      1
  1306   1279   1283      1
  1307   1279   1284      1
  1308   1280   1281      1
  1309   1281   1282      1
  1310   1281   1285      1
  1311   1282   1283      1
  1312   1282   1286      1
  1313   1283   1287      1
  1314   1284   1288      1
  1315   1285   1289      1
  1316   1290   1291      1
  1317   1290   1294      1
  1318   1290   1295      1
  1319   1291   1292      1
  1320   1292   1293      1
  1321   1292   1296      1
  1322   1293   1294      1
  1323   1293   1297      1
  1324   1294   1298      1
  1325   1295   1299      1
  1326   1296   1300      1
  1327   1296   4602      1
  1328   1301   1302      1
  1329   1301   1305      1
  1330   1301   1306      1
  1331   1302   4326      1
  1332   1303   1304      1
  1333   1303   1307      1
  1334   1304   1305      1
  1335   1304   1308      1
  1336   1305   1309      1
  1337   1306   1310      1
  1338   1307   1311      1
  1339   1312   1316      1
  1340   1312   1317      1
  1341   1313   1314      1
  1342   1313   2252      1
  1343   1314   1315      1
  1344   1314   1318      1
  1345   1315   1316      1
  1346   1315   1319      1
  1347   1316   1320      1
  1348   1317   1321      1
  1349   1318   1322      1
  1350   1323   1324      1
  1351   1323   1330      1
  1352   1323   1333      1
  1353   1323   1336      1
  1354   1324   1325      1
  1355   1324   1359      1
  1356   1325   1326      1
  1357   1325   1360      1
  1358   1326   1331      1
  1359   1326   1334      1
  1360   1326   1336      1
  1361   1327   1328      1
  1362   1327   1331      1
  1363   1327   1335      1
  1364   1328   1329      1
  1365   1329   1330      1
  1366   1329   1332      1
  1367   1330   1331      1
  1368   1330   1361      1
  1369   1331   1362      1
  1370   1332   1340      1
  1371   1332   1363      1
  1372   1333   1351      1
  1373   1333   1364      1
  1374   1333   1365      1
  1375   1334   1352      1
  1376   1334   1366      1
  1377   1334   1367      1
  1378   1335   1343      1
  1379   1335   1368      1
  1380   1337   1338      1
  1381   1337   1341      1
  1382   1338   1339      1
  1383   1338   1369      1
  1384   1339   1340      1
  1385   1339   1370      1
  1386   1340   1341      1
  1387   1342   1343      1
  1388   1342   1346      1
  1389   1343   1344      1
  1390   1344   1345      1
  1391   1344   1371      1
  1392   1345   1346      1
  1393   1345   1372      1
  1394   1346   1358      1
  1395   1347   1348      1
  1396   1347   1351      1
  1397   1348   1349      1
  1398   1348   1357      1
  1399   1349   1350      1
  1400   1349   1373      1
  1401   1350   1351      1
  1402   1350   1374      1
  1403   1352   1353      1
  1404   1352   1356      1
  1405   1353   1354      1
  1406   1353   1375      1
  1407   1354   1355      1
  1408   1354   1376      1
  1409   1355   1356      1
  1410   1355   1396      1
  1411   1355   1427      1
  1412   1357   1377      1
  1413   1357   1378      1
  1414   1358   1379      1
  1415   1358   1380      1
  1416   1381   1382      1
  1417   1381   1388      1
  1418   1381   1391      1
  1419   1381   1394      1
  1420   1382   1383      1
  1421   1382   1417      1
  1422   1383   1384      1
  1423   1383   1418      1
  1424   1384   1389      1
  1425   1384   1392      1
  1426   1384   1394      1
  1427   1385   1386      1
  1428   1385   1389      1
  1429   1385   1393      1
  1430   1386   1387      1
  1431   1387   1388      1
  1432   1387   1390      1
  1433   1388   1389      1
  1434   1388   1419      1
  1435   1389   1420      1
  1436   1390   1398      1
  1437   1390   1421      1
  1438   1391   1409      1
  1439   1391   1422      1
  1440   1391   1423      1
  1441   1392   1410      1
  1442   1392   1424      1
  1443   1392   1425      1
  1444   1393   1401      1
  1445   1393   1426      1
  1446   1395   1396      1
  1447   1395   1399      1
  1448   1396   1397      1
  1449   1397   1398      1
  1450   1397   1428      1
  1451   1398   1399      1
  1452   1400   1401      1
  1453   1400   1404      1
  1454   1401   1402      1
  1455   1402   1403      1
  1456   1402   1429      1
  1457   1403   1404      1
  1458   1403   1430      1
  1459   1404   1416      1
  1460   1405   1406      1
  1461   1405   1409      1
  1462   1406   1407      1
  1463   1406   1415      1
  1464   1407   1408      1
  1465   1407   1431      1
  1466   1408   1409      1
  1467   1408   1432      1
  1468   1410   1411      1
  1469   1410   1414      1
  1470   1411   1412      1
  1471   1411   1433      1
  1472   1412   1413      1
  1473   1412   1434      1
  1474   1413   3260      1
  1475   1415   1435      1
  1476   1415   1436      1
  1477   1416   1437      1
  1478   1416   1438      1
  1479   1439   1440      1
  1480   1439   1446      1
  1481   1439   1449      1
  1482   1440   1441      1
  1483   1440   1475      1
  1484   1441   1442      1
  1485   1441   1476      1
  1486   1442   1447      1
  1487   1442   1450      1
  1488   1443   1444      1
  1489   1443   1447      1
  1490   1443   1451      1
  1491   1444   1445      1
  1492   1445   1446      1
  1493   1445   1448      1
  1494   1446   1447      1
  1495   1446   1477      1
  1496   1447   1478      1
  1497   1448   1456      1
  1498   1448   1479      1
  1499   1449   1467      1
  1500   1449   1480      1
  1501   1449   1481      1
  1502   1450   1468      1
  1503   1450   1483      1
  1504   1451   1459      1
  1505   1451   1484      1
  1506   1452   1553      1
  1507   1452   4170      1
  1508   1453   1454      1
  1509   1453   1457      1
  1510   1453   1474      1
  1511   1454   1455      1
  1512   1454   1485      1
  1513   1455   1456      1
  1514   1455   1486      1
  1515   1456   1457      1
  1516   1458   1459      1
  1517   1458   1482      1
  1518   1459   1460      1
  1519   1460   1461      1
  1520   1460   1487      1
  1521   1461   1462      1
  1522   1461   1488      1
  1523   1462   2871      1
  1524   1463   1467      1
  1525   1463   4604      1
  1526   1464   4603      1
  1527   1465   1466      1
  1528   1465   1489      1
  1529   1466   1467      1
  1530   1466   1490      1
  1531   1468   1469      1
  1532   1468   1532      1
  1533   1469   1491      1
  1534   1469   1532      1
  1535   1470   1471      1
  1536   1470   1511      1
  1537   1470   1532      1
  1538   1471   1473      1
  1539   1472   1554      1
  1540   1473   1493      1
  1541   1473   1494      1
  1542   1474   1495      1
  1543   1474   1496      1
  1544   1492   1510      1
  1545   1497   1498      1
  1546   1497   1504      1
  1547   1497   1507      1
  1548   1497   1510      1
  1549   1498   1499      1
  1550   1498   1533      1
  1551   1499   1500      1
  1552   1499   1534      1
  1553   1500   1505      1
  1554   1500   1508      1
  1555   1501   1502      1
  1556   1501   1505      1
  1557   1501   1509      1
  1558   1502   1503      1
  1559   1503   1504      1
  1560   1503   1506      1
  1561   1504   1505      1
  1562   1504   1535      1
  1563   1505   1536      1
  1564   1506   1514      1
  1565   1506   1537      1
  1566   1507   1525      1
  1567   1507   1538      1
  1568   1507   1539      1
  1569   1508   1526      1
  1570   1508   1540      1
  1571   1509   1517      1
  1572   1509   1542      1
  1573   1511   1512      1
  1574   1511   1515      1
  1575   1512   1513      1
  1576   1513   1514      1
  1577   1514   1515      1
  1578   1516   1517      1
  1579   1516   1541      1
  1580   1517   1518      1
  1581   1518   1519      1
  1582   1518   1545      1
  1583   1519   1520      1
  1584   1519   1546      1
  1585   1520   2499      1
  1586   1521   1525      1
  1587   1522   1523      1
  1588   1523   1524      1
  1589   1523   1547      1
  1590   1524   1525      1
  1591   1524   1548      1
  1592   1526   1527      1
  1593   1526   1530      1
  1594   1527   1528      1
  1595   1527   1549      1
  1596   1528   1529      1
  1597   1528   1550      1
  1598   1529   1530      1
  1599   1529   1531      1
  1600   1531   1551      1
  1601   1531   1552      1
  1602   1555   1556      1
  1603   1555   1561      1
  1604   1555   1568      1
  1605   1556   1557      1
  1606   1556   1574      1
  1607   1557   1558      1
  1608   1557   1575      1
  1609   1558   1559      1
  1610   1558   1560      1
  1611   1559   1562      1
  1612   1559   1576      1
  1613   1559   1577      1
  1614   1561   1679      1
  1615   1562   1563      1
  1616   1562   1566      1
  1617   1563   1564      1
  1618   1563   1578      1
  1619   1564   1565      1
  1620   1564   1579      1
  1621   1565   1566      1
  1622   1565   1567      1
  1623   1567   1580      1
  1624   1567   1581      1
  1625   1568   1572      1
  1626   1568   1582      1
  1627   1568   1583      1
  1628   1569   1570      1
  1629   1570   1571      1
  1630   1570   1584      1
  1631   1571   1572      1
  1632   1571   1585      1
  1633   1572   1573      1
  1634   1586   1587      1
  1635   1586   1592      1
  1636   1586   1599      1
  1637   1587   1588      1
  1638   1587   1605      1
  1639   1588   1589      1
  1640   1588   1606      1
  1641   1589   1590      1
  1642   1589   1591      1
  1643   1590   1593      1
  1644   1590   1607      1
  1645   1590   1608      1
  1646   1593   1594      1
  1647   1593   1597      1
  1648   1594   1595      1
  1649   1594   1609      1
  1650   1595   1596      1
  1651   1595   1610      1
  1652   1596   1597      1
  1653   1596   1598      1
  1654   1598   1611      1
  1655   1598   1612      1
  1656   1599   1603      1
  1657   1599   1613      1
  1658   1599   1614      1
  1659   1600   1601      1
  1660   1601   1602      1
  1661   1601   1615      1
  1662   1602   1603      1
  1663   1602   1616      1
  1664   1603   1604      1
  1665   1604   1712      1
  1666   1617   1618      1
  1667   1617   1621      1
  1668   1617   1622      1
  1669   1618   1619      1
  1670   1619   1620      1
  1671   1619   1628      1
  1672   1620   1621      1
  1673   1620   1635      1
  1674   1621   1636      1
  1675   1622   1629      1
  1676   1622   1637      1
  1677   1623   1624      1
  1678   1624   1625      1
  1679   1625   1626      1
  1680   1626   1638      1
  1681   1627   1639      1
  1682   1629   1630      1
  1683   1629   1633      1
  1684   1630   1631      1
  1685   1630   1641      1
  1686   1631   1632      1
  1687   1631   1642      1
  1688   1632   1633      1
  1689   1632   1634      1
  1690   1634   1643      1
  1691   1634   1644      1
  1692   1645   1646      1
  1693   1645   1649      1
  1694   1645   1650      1
  1695   1646   1647      1
  1696   1648   1663      1
  1697   1649   1664      1
  1698   1650   1657      1
  1699   1650   1665      1
  1700   1651   1652      1
  1701   1651   1655      1
  1702   1651   1656      1
  1703   1652   1653      1
  1704   1653   1654      1
  1705   1654   1655      1
  1706   1654   1666      1
  1707   1655   1667      1
  1708   1657   1658      1
  1709   1657   1661      1
  1710   1658   1659      1
  1711   1658   1669      1
  1712   1659   1660      1
  1713   1659   1670      1
  1714   1660   1661      1
  1715   1660   1662      1
  1716   1662   1671      1
  1717   1662   1672      1
  1718   1673   1678      1
  1719   1674   1675      1
  1720   1675   1676      1
  1721   1675   1679      1
  1722   1676   1677      1
  1723   1676   1680      1
  1724   1678   1682      1
  1725   1679   1683      1
  1726   1684   1685      1
  1727   1684   1688      1
  1728   1684   1689      1
  1729   1685   1686      1
  1730   1686   1687      1
  1731   1686   1690      1
  1732   1687   1688      1
  1733   1687   1691      1
  1734   1688   1692      1
  1735   1689   1693      1
  1736   1689   3085      1
  1737   1690   1694      1
  1738   1695   1696      1
  1739   1695   1699      1
  1740   1695   1700      1
  1741   1696   1697      1
  1742   1697   1698      1
  1743   1697   1701      1
  1744   1698   1699      1
  1745   1698   1702      1
  1746   1699   1703      1
  1747   1700   1704      1
  1748   1701   1705      1
  1749   1706   1707      1
  1750   1706   1710      1
  1751   1706   1711      1
  1752   1707   1708      1
  1753   1708   1709      1
  1754   1708   1712      1
  1755   1709   1710      1
  1756   1709   1713      1
  1757   1710   1714      1
  1758   1711   1715      1
  1759   1712   1716      1
  1760   1717   1718      1
  1761   1717   1721      1
  1762   1717   1722      1
  1763   1718   1719      1
  1764   1719   1720      1
  1765   1719   1723      1
  1766   1720   1721      1
  1767   1720   1724      1
  1768   1721   1725      1
  1769   1722   1726      1
  1770   1723   1727      1
  1771   1728   1729      1
  1772   1728   1738      1
  1773   1729   1730      1
  1774   1729   1764      1
  1775   1730   1765      1
  1776   1731   1736      1
  1777   1731   1739      1
  1778   1731   1741      1
  1779   1732   1733      1
  1780   1732   1736      1
  1781   1732   1740      1
  1782   1733   1734      1
  1783   1734   1735      1
  1784   1734   1737      1
  1785   1735   1736      1
  1786   1735   1766      1
  1787   1736   1767      1
  1788   1737   1745      1
  1789   1737   1768      1
  1790   1738   1756      1
  1791   1738   1770      1
  1792   1739   1757      1
  1793   1739   1771      1
  1794   1739   1772      1
  1795   1740   1748      1
  1796   1740   1773      1
  1797   1742   1743      1
  1798   1743   1774      1
  1799   1744   1745      1
  1800   1744   1775      1
  1801   1747   1748      1
  1802   1747   1751      1
  1803   1748   1749      1
  1804   1749   1750      1
  1805   1749   1776      1
  1806   1750   1751      1
  1807   1750   1777      1
  1808   1751   1763      1
  1809   1752   1753      1
  1810   1752   1756      1
  1811   1753   1754      1
  1812   1753   1762      1
  1813   1754   1755      1
  1814   1754   1778      1
  1815   1755   1756      1
  1816   1755   1779      1
  1817   1758   1759      1
  1818   1758   1780      1
  1819   1759   1760      1
  1820   1759   1781      1
  1821   1760   1761      1
  1822   1760   1801      1
  1823   1760   1832      1
  1824   1762   1782      1
  1825   1762   1783      1
  1826   1763   1784      1
  1827   1763   1785      1
  1828   1786   1787      1
  1829   1786   1793      1
  1830   1786   1796      1
  1831   1786   1799      1
  1832   1787   1788      1
  1833   1787   1822      1
  1834   1788   1789      1
  1835   1788   1823      1
  1836   1789   1794      1
  1837   1789   1797      1
  1838   1789   1799      1
  1839   1790   1791      1
  1840   1790   1794      1
  1841   1790   1798      1
  1842   1791   1792      1
  1843   1792   1793      1
  1844   1792   1795      1
  1845   1793   1794      1
  1846   1793   1824      1
  1847   1794   1825      1
  1848   1795   1803      1
  1849   1795   1826      1
  1850   1796   1814      1
  1851   1796   1827      1
  1852   1796   1828      1
  1853   1797   1815      1
  1854   1797   1829      1
  1855   1797   1830      1
  1856   1798   1806      1
  1857   1798   1831      1
  1858   1800   1801      1
  1859   1801   1802      1
  1860   1802   1803      1
  1861   1802   1833      1
  1862   1803   1804      1
  1863   1804   2750      1
  1864   1805   1806      1
  1865   1805   1809      1
  1866   1806   1807      1
  1867   1807   1808      1
  1868   1807   1834      1
  1869   1808   1809      1
  1870   1808   1835      1
  1871   1809   1821      1
  1872   1810   1811      1
  1873   1810   1814      1
  1874   1811   1812      1
  1875   1811   1820      1
  1876   1812   1813      1
  1877   1812   1836      1
  1878   1813   1814      1
  1879   1813   1837      1
  1880   1815   1816      1
  1881   1815   1819      1
  1882   1816   1817      1
  1883   1816   1838      1
  1884   1817   1818      1
  1885   1817   1839      1
  1886   1819   2881      1
  1887   1820   1840      1
  1888   1820   1841      1
  1889   1821   1842      1
  1890   1821   1843      1
  1891   1844   1845      1
  1892   1844   1851      1
  1893   1844   1854      1
  1894   1844   1857      1
  1895   1845   1846      1
  1896   1845   1880      1
  1897   1846   1847      1
  1898   1846   1881      1
  1899   1847   1852      1
  1900   1847   1855      1
  1901   1848   1849      1
  1902   1848   1852      1
  1903   1848   1856      1
  1904   1849   1850      1
  1905   1850   1851      1
  1906   1850   1853      1
  1907   1851   1852      1
  1908   1851   1882      1
  1909   1852   1883      1
  1910   1853   1861      1
  1911   1853   1884      1
  1912   1854   1872      1
  1913   1854   1885      1
  1914   1854   1886      1
  1915   1855   1873      1
  1916   1855   1888      1
  1917   1856   1864      1
  1918   1856   1889      1
  1919   1857   1958      1
  1920   1858   1859      1
  1921   1858   1862      1
  1922   1859   1860      1
  1923   1859   1890      1
  1924   1860   1861      1
  1925   1860   1891      1
  1926   1861   1862      1
  1927   1863   1864      1
  1928   1863   1887      1
  1929   1864   1865      1
  1930   1865   1866      1
  1931   1865   1892      1
  1932   1866   1867      1
  1933   1866   1893      1
  1934   1867   3276      1
  1935   1868   1872      1
  1936   1869   1870      1
  1937   1869   2349      1
  1938   1870   1871      1
  1939   1870   1894      1
  1940   1871   1872      1
  1941   1871   1895      1
  1942   1873   1874      1
  1943   1873   1937      1
  1944   1874   1896      1
  1945   1874   1937      1
  1946   1875   1876      1
  1947   1875   1916      1
  1948   1875   1937      1
  1949   1876   1877      1
  1950   1876   1878      1
  1951   1877   1959      1
  1952   1878   1898      1
  1953   1878   1899      1
  1954   1879   1900      1
  1955   1879   1901      1
  1956   1897   1915      1
  1957   1902   1909      1
  1958   1902   1912      1
  1959   1902   1915      1
  1960   1903   1904      1
  1961   1903   1938      1
  1962   1904   1905      1
  1963   1904   1939      1
  1964   1905   1913      1
  1965   1906   1907      1
  1966   1906   1910      1
  1967   1906   1914      1
  1968   1907   1908      1
  1969   1908   1909      1
  1970   1908   1911      1
  1971   1909   1910      1
  1972   1909   1940      1
  1973   1910   1941      1
  1974   1911   1919      1
  1975   1911   1942      1
  1976   1912   1930      1
  1977   1912   1943      1
  1978   1912   1944      1
  1979   1913   1931      1
  1980   1913   1945      1
  1981   1913   1946      1
  1982   1914   1922      1
  1983   1914   1947      1
  1984   1916   1917      1
  1985   1916   1920      1
  1986   1917   1918      1
  1987   1917   1948      1
  1988   1918   1919      1
  1989   1918   1949      1
  1990   1919   1920      1
  1991   1921   1922      1
  1992   1922   1923      1
  1993   1923   1924      1
  1994   1923   1950      1
  1995   1926   1930      1
  1996   1927   1928      1
  1997   1928   1952      1
  1998   1929   1930      1
  1999   1929   1953      1
  2000   1931   1932      1
  2001   1931   1935      1
  2002   1932   1933      1
  2003   1932   1954      1
  2004   1933   1934      1
  2005   1933   1955      1
  2006   1934   1935      1
  2007   1934   1936      1
  2008   1936   1956      1
  2009   1936   1957      1
  2010   1960   1961      1
  2011   1960   1966      1
  2012   1960   1973      1
  2013   1961   1962      1
  2014   1961   1979      1
  2015   1962   1980      1
  2016   1963   1964      1
  2017   1964   1967      1
  2018   1964   1981      1
  2019   1964   1982      1
  2020   1967   1968      1
  2021   1967   1971      1
  2022   1968   1969      1
  2023   1968   1983      1
  2024   1969   1970      1
  2025   1969   1984      1
  2026   1970   1971      1
  2027   1970   1972      1
  2028   1972   1985      1
  2029   1972   1986      1
  2030   1973   1977      1
  2031   1973   1987      1
  2032   1973   1988      1
  2033   1974   1975      1
  2034   1974   4317      1
  2035   1975   1976      1
  2036   1975   1989      1
  2037   1976   1977      1
  2038   1976   1990      1
  2039   1977   1978      1
  2040   1991   1997      1
  2041   1991   2004      1
  2042   1992   1993      1
  2043   1992   2010      1
  2044   1993   2011      1
  2045   1994   1995      1
  2046   1994   1996      1
  2047   1995   1998      1
  2048   1995   2012      1
  2049   1995   2013      1
  2050   1998   1999      1
  2051   1998   2002      1
  2052   1999   2000      1
  2053   1999   2014      1
  2054   2000   2001      1
  2055   2000   2015      1
  2056   2001   2002      1
  2057   2001   2003      1
  2058   2003   2016      1
  2059   2003   2017      1
  2060   2004   2018      1
  2061   2005   2006      1
  2062   2005   2101      1
  2063   2006   2007      1
  2064   2006   2020      1
  2065   2007   2008      1
  2066   2007   2021      1
  2067   2008   2009      1
  2068   2022   2023      1
  2069   2022   2026      1
  2070   2022   2027      1
  2071   2023   2024      1
  2072   2024   2025      1
  2073   2024   2033      1
  2074   2025   2026      1
  2075   2025   2040      1
  2076   2026   2041      1
  2077   2027   2034      1
  2078   2027   2042      1
  2079   2028   2029      1
  2080   2028   2032      1
  2081   2028   2033      1
  2082   2029   2030      1
  2083   2030   2031      1
  2084   2031   2032      1
  2085   2031   2043      1
  2086   2032   2044      1
  2087   2033   2045      1
  2088   2034   2035      1
  2089   2034   2038      1
  2090   2035   2036      1
  2091   2035   2046      1
  2092   2036   2037      1
  2093   2036   2047      1
  2094   2037   2038      1
  2095   2037   2039      1
  2096   2039   2048      1
  2097   2039   2049      1
  2098   2050   2051      1
  2099   2050   2054      1
  2100   2050   2055      1
  2101   2051   2052      1
  2102   2052   2053      1
  2103   2052   2061      1
  2104   2053   2054      1
  2105   2053   2068      1
  2106   2054   2069      1
  2107   2055   2062      1
  2108   2055   2070      1
  2109   2056   2057      1
  2110   2056   2060      1
  2111   2056   2061      1
  2112   2057   2342      1
  2113   2058   2059      1
  2114   2058   2754      1
  2115   2059   2060      1
  2116   2059   2071      1
  2117   2060   2072      1
  2118   2061   2073      1
  2119   2062   2063      1
  2120   2062   2066      1
  2121   2063   2064      1
  2122   2063   2074      1
  2123   2064   2065      1
  2124   2064   2075      1
  2125   2065   2066      1
  2126   2065   2067      1
  2127   2067   2076      1
  2128   2067   2077      1
  2129   2078   2079      1
  2130   2078   2082      1
  2131   2078   2083      1
  2132   2079   2080      1
  2133   2080   2081      1
  2134   2080   2084      1
  2135   2081   2082      1
  2136   2081   2085      1
  2137   2082   2086      1
  2138   2083   2087      1
  2139   2084   2088      1
  2140   2089   2093      1
  2141   2091   2092      1
  2142   2091   2095      1
  2143   2092   2093      1
  2144   2092   2096      1
  2145   2093   2097      1
  2146   2095   2099      1
  2147   2100   2101      1
  2148   2102   2103      1
  2149   2102   2106      1
  2150   2103   2107      1
  2151   2104   2108      1
  2152   2105   2109      1
  2153   2106   2110      1
  2154   2111   2112      1
  2155   2111   2118      1
  2156   2111   2121      1
  2157   2111   2124      1
  2158   2112   2113      1
  2159   2112   2147      1
  2160   2113   2114      1
  2161   2113   2148      1
  2162   2114   2119      1
  2163   2114   2122      1
  2164   2114   2124      1
  2165   2115   2116      1
  2166   2115   2119      1
  2167   2115   2123      1
  2168   2116   2117      1
  2169   2117   2118      1
  2170   2117   2120      1
  2171   2118   2119      1
  2172   2118   2149      1
  2173   2119   2150      1
  2174   2120   2128      1
  2175   2120   2151      1
  2176   2121   2139      1
  2177   2121   2152      1
  2178   2121   2153      1
  2179   2122   2140      1
  2180   2122   2154      1
  2181   2123   2131      1
  2182   2123   2156      1
  2183   2125   2126      1
  2184   2126   2127      1
  2185   2126   2157      1
  2186   2127   2128      1
  2187   2127   2158      1
  2188   2128   2129      1
  2189   2130   2131      1
  2190   2130   2134      1
  2191   2131   2132      1
  2192   2132   2133      1
  2193   2132   2159      1
  2194   2133   2134      1
  2195   2133   2160      1
  2196   2134   2146      1
  2197   2135   2136      1
  2198   2135   2139      1
  2199   2136   2137      1
  2200   2136   2145      1
  2201   2137   2138      1
  2202   2137   2161      1
  2203   2138   2139      1
  2204   2138   2162      1
  2205   2140   2141      1
  2206   2140   2144      1
  2207   2141   2142      1
  2208   2141   2163      1
  2209   2142   2143      1
  2210   2142   2164      1
  2211   2143   2144      1
  2212   2143   2184      1
  2213   2143   2215      1
  2214   2145   2165      1
  2215   2145   2166      1
  2216   2146   2167      1
  2217   2146   2168      1
  2218   2155   2246      1
  2219   2169   2170      1
  2220   2169   2176      1
  2221   2169   2179      1
  2222   2169   2182      1
  2223   2170   2171      1
  2224   2170   2205      1
  2225   2171   2172      1
  2226   2171   2206      1
  2227   2172   2177      1
  2228   2172   2180      1
  2229   2172   2182      1
  2230   2173   2174      1
  2231   2173   2177      1
  2232   2173   2181      1
  2233   2174   2175      1
  2234   2175   2176      1
  2235   2175   2178      1
  2236   2176   2177      1
  2237   2176   2207      1
  2238   2177   2208      1
  2239   2178   2186      1
  2240   2178   2209      1
  2241   2179   2197      1
  2242   2179   2210      1
  2243   2179   2211      1
  2244   2180   2198      1
  2245   2180   2212      1
  2246   2180   2213      1
  2247   2181   2189      1
  2248   2181   2214      1
  2249   2183   2184      1
  2250   2183   2187      1
  2251   2184   2185      1
  2252   2185   2186      1
  2253   2185   2216      1
  2254   2186   2187      1
  2255   2188   2189      1
  2256   2188   2192      1
  2257   2189   2190      1
  2258   2190   2191      1
  2259   2190   2217      1
  2260   2191   2192      1
  2261   2191   2218      1
  2262   2192   2204      1
  2263   2193   2194      1
  2264   2193   2197      1
  2265   2194   2195      1
  2266   2194   2203      1
  2267   2195   2196      1
  2268   2195   2219      1
  2269   2196   2197      1
  2270   2196   2220      1
  2271   2198   2199      1
  2272   2198   2202      1
  2273   2199   2200      1
  2274   2199   2221      1
  2275   2200   2201      1
  2276   2200   2222      1
  2277   2202   2308      1
  2278   2203   2223      1
  2279   2203   2224      1
  2280   2204   2225      1
  2281   2204   2226      1
  2282   2227   2228      1
  2283   2227   2234      1
  2284   2227   2237      1
  2285   2227   2240      1
  2286   2228   2229      1
  2287   2228   2263      1
  2288   2229   2230      1
  2289   2229   2264      1
  2290   2230   2235      1
  2291   2230   2238      1
  2292   2231   2232      1
  2293   2231   2235      1
  2294   2231   2239      1
  2295   2232   2233      1
  2296   2233   2234      1
  2297   2233   2236      1
  2298   2234   2235      1
  2299   2234   2265      1
  2300   2235   2266      1
  2301   2236   2244      1
  2302   2236   2267      1
  2303   2237   2255      1
  2304   2237   2268      1
  2305   2237   2269      1
  2306   2238   2256      1
  2307   2238   2270      1
  2308   2238   2271      1
  2309   2239   2247      1
  2310   2239   2272      1
  2311   2240   2341      1
  2312   2241   2242      1
  2313   2241   2245      1
  2314   2241   2262      1
  2315   2242   2243      1
  2316   2242   2273      1
  2317   2243   2244      1
  2318   2243   2274      1
  2319   2244   2245      1
  2320   2246   2247      1
  2321   2247   2248      1
  2322   2248   2249      1
  2323   2248   2275      1
  2324   2249   2250      1
  2325   2249   2276      1
  2326   2250   3681      1
  2327   2251   2255      1
  2328   2252   2253      1
  2329   2253   2254      1
  2330   2253   2277      1
  2331   2254   2255      1
  2332   2254   2278      1
  2333   2256   2257      1
  2334   2256   2260      1
  2335   2256   2320      1
  2336   2257   2279      1
  2337   2257   2320      1
  2338   2258   2259      1
  2339   2258   2299      1
  2340   2258   2320      1
  2341   2259   2260      1
  2342   2259   2261      1
  2343   2261   2281      1
  2344   2261   2282      1
  2345   2262   2283      1
  2346   2262   2284      1
  2347   2280   2298      1
  2348   2285   2286      1
  2349   2285   2292      1
  2350   2285   2295      1
  2351   2285   2298      1
  2352   2286   2287      1
  2353   2286   2321      1
  2354   2287   2288      1
  2355   2287   2322      1
  2356   2288   2293      1
  2357   2288   2296      1
  2358   2289   2290      1
  2359   2289   2293      1
  2360   2289   2297      1
  2361   2290   2291      1
  2362   2291   2292      1
  2363   2291   2294      1
  2364   2292   2293      1
  2365   2292   2323      1
  2366   2293   2324      1
  2367   2294   2302      1
  2368   2294   2325      1
  2369   2295   2313      1
  2370   2295   2326      1
  2371   2295   2327      1
  2372   2296   2314      1
  2373   2296   2328      1
  2374   2296   2329      1
  2375   2297   2305      1
  2376   2297   2330      1
  2377   2299   2300      1
  2378   2299   2303      1
  2379   2300   2301      1
  2380   2300   2331      1
  2381   2301   2302      1
  2382   2301   2332      1
  2383   2302   2303      1
  2384   2304   2305      1
  2385   2305   2306      1
  2386   2306   2307      1
  2387   2306   2333      1
  2388   2307   2308      1
  2389   2307   2334      1
  2390   2309   2313      1
  2391   2310   2311      1
  2392   2310   4330      1
  2393   2311   2312      1
  2394   2311   2335      1
  2395   2312   2313      1
  2396   2312   2336      1
  2397   2314   2315      1
  2398   2314   2318      1
  2399   2315   2316      1
  2400   2315   2337      1
  2401   2316   2317      1
  2402   2316   2338      1
  2403   2317   2318      1
  2404   2317   2319      1
  2405   2319   2339      1
  2406   2319   2340      1
  2407   2343   2344      1
  2408   2343   2349      1
  2409   2343   2356      1
  2410   2344   2345      1
  2411   2344   2362      1
  2412   2345   2346      1
  2413   2345   2363      1
  2414   2346   2347      1
  2415   2346   2348      1
  2416   2347   2350      1
  2417   2347   2364      1
  2418   2347   2365      1
  2419   2350   2351      1
  2420   2350   2354      1
  2421   2351   2352      1
  2422   2351   2366      1
  2423   2352   2353      1
  2424   2352   2367      1
  2425   2353   2354      1
  2426   2353   2355      1
  2427   2355   2368      1
  2428   2355   2369      1
  2429   2356   2360      1
  2430   2356   2370      1
  2431   2356   2371      1
  2432   2357   2358      1
  2433   2357   3945      1
  2434   2357   3946      1
  2435   2358   2359      1
  2436   2358   2372      1
  2437   2359   2360      1
  2438   2359   2373      1
  2439   2360   2361      1
  2440   2374   2375      1
  2441   2374   2380      1
  2442   2374   2387      1
  2443   2375   2376      1
  2444   2375   2393      1
  2445   2376   2377      1
  2446   2376   2394      1
  2447   2377   2378      1
  2448   2377   2379      1
  2449   2378   2381      1
  2450   2378   2395      1
  2451   2378   2396      1
  2452   2381   2385      1
  2453   2382   2383      1
  2454   2382   2397      1
  2455   2383   2384      1
  2456   2383   2398      1
  2457   2384   2386      1
  2458   2386   2399      1
  2459   2386   2400      1
  2460   2387   2391      1
  2461   2387   2401      1
  2462   2387   2402      1
  2463   2388   2389      1
  2464   2388   2488      1
  2465   2389   2390      1
  2466   2389   2403      1
  2467   2390   2391      1
  2468   2390   2404      1
  2469   2391   2392      1
  2470   2392   4221      1
  2471   2405   2406      1
  2472   2405   2409      1
  2473   2405   2410      1
  2474   2406   2407      1
  2475   2407   2408      1
  2476   2407   2416      1
  2477   2408   2409      1
  2478   2408   2423      1
  2479   2409   2424      1
  2480   2410   2417      1
  2481   2410   2425      1
  2482   2411   2412      1
  2483   2411   2415      1
  2484   2411   2416      1
  2485   2412   2413      1
  2486   2413   2414      1
  2487   2414   2415      1
  2488   2414   2426      1
  2489   2415   2427      1
  2490   2416   2428      1
  2491   2417   2418      1
  2492   2417   2421      1
  2493   2418   2419      1
  2494   2418   2429      1
  2495   2419   2420      1
  2496   2419   2430      1
  2497   2420   2421      1
  2498   2420   2422      1
  2499   2422   2431      1
  2500   2422   2432      1
  2501   2433   2434      1
  2502   2433   2437      1
  2503   2434   2435      1
  2504   2435   2436      1
  2505   2435   2444      1
  2506   2436   2437      1
  2507   2436   2451      1
  2508   2437   2452      1
  2509   2438   2445      1
  2510   2438   2453      1
  2511   2439   2443      1
  2512   2439   2444      1
  2513   2441   2442      1
  2514   2442   2443      1
  2515   2442   2454      1
  2516   2443   2455      1
  2517   2445   2446      1
  2518   2445   2449      1
  2519   2446   2447      1
  2520   2446   2457      1
  2521   2447   2448      1
  2522   2447   2458      1
  2523   2448   2449      1
  2524   2448   2450      1
  2525   2450   2459      1
  2526   2450   2460      1
  2527   2461   2462      1
  2528   2461   2465      1
  2529   2461   2466      1
  2530   2462   2463      1
  2531   2463   2464      1
  2532   2463   2467      1
  2533   2464   2465      1
  2534   2464   2468      1
  2535   2465   2469      1
  2536   2466   2470      1
  2537   2467   2471      1
  2538   2472   2473      1
  2539   2472   2476      1
  2540   2472   2477      1
  2541   2473   2474      1
  2542   2474   2475      1
  2543   2474   2478      1
  2544   2475   2476      1
  2545   2475   2479      1
  2546   2476   2480      1
  2547   2478   2482      1
  2548   2483   2484      1
  2549   2483   2487      1
  2550   2484   2485      1
  2551   2485   2486      1
  2552   2485   2489      1
  2553   2486   2487      1
  2554   2486   2490      1
  2555   2487   2491      1
  2556   2488   2492      1
  2557   2489   2493      1
  2558   2494   2495      1
  2559   2494   2498      1
  2560   2494   2499      1
  2561   2495   2496      1
  2562   2496   2497      1
  2563   2496   2500      1
  2564   2497   2498      1
  2565   2497   2501      1
  2566   2498   2502      1
  2567   2499   2503      1
  2568   2500   2504      1
  2569   2505   2506      1
  2570   2505   2512      1
  2571   2505   2518      1
  2572   2506   2507      1
  2573   2507   2508      1
  2574   2507   2542      1
  2575   2508   2513      1
  2576   2508   2516      1
  2577   2508   2518      1
  2578   2509   2510      1
  2579   2509   2513      1
  2580   2509   2517      1
  2581   2510   2511      1
  2582   2511   2512      1
  2583   2512   2513      1
  2584   2513   2544      1
  2585   2514   2522      1
  2586   2514   2545      1
  2587   2515   2533      1
  2588   2515   2546      1
  2589   2515   2547      1
  2590   2516   2534      1
  2591   2516   2548      1
  2592   2516   2549      1
  2593   2517   2525      1
  2594   2517   2550      1
  2595   2519   2520      1
  2596   2519   2523      1
  2597   2520   2521      1
  2598   2520   2551      1
  2599   2521   2522      1
  2600   2521   2552      1
  2601   2522   2523      1
  2602   2524   2525      1
  2603   2524   2528      1
  2604   2525   2526      1
  2605   2526   2527      1
  2606   2526   2553      1
  2607   2527   2528      1
  2608   2527   2554      1
  2609   2528   2540      1
  2610   2529   2533      1
  2611   2530   2531      1
  2612   2530   2539      1
  2613   2532   2533      1
  2614   2534   2535      1
  2615   2534   2538      1
  2616   2535   2536      1
  2617   2535   2557      1
  2618   2536   2537      1
  2619   2536   2558      1
  2620   2537   2538      1
  2621   2537   2578      1
  2622   2537   2609      1
  2623   2539   2559      1
  2624   2539   2560      1
  2625   2540   2561      1
  2626   2540   2562      1
  2627   2563   2564      1
  2628   2563   2570      1
  2629   2563   2573      1
  2630   2563   2576      1
  2631   2564   2565      1
  2632   2564   2599      1
  2633   2565   2566      1
  2634   2565   2600      1
  2635   2566   2571      1
  2636   2566   2574      1
  2637   2566   2576      1
  2638   2567   2568      1
  2639   2567   2571      1
  2640   2567   2575      1
  2641   2568   2569      1
  2642   2569   2570      1
  2643   2569   2572      1
  2644   2570   2571      1
  2645   2570   2601      1
  2646   2571   2602      1
  2647   2572   2580      1
  2648   2572   2603      1
  2649   2573   2591      1
  2650   2573   2604      1
  2651   2573   2605      1
  2652   2574   2592      1
  2653   2574   2606      1
  2654   2574   2607      1
  2655   2575   2583      1
  2656   2575   2608      1
  2657   2577   2578      1
  2658   2577   2581      1
  2659   2578   2579      1
  2660   2579   2580      1
  2661   2579   2610      1
  2662   2580   2581      1
  2663   2582   2583      1
  2664   2582   2586      1
  2665   2583   2584      1
  2666   2584   2585      1
  2667   2584   2611      1
  2668   2585   2586      1
  2669   2585   2612      1
  2670   2586   2598      1
  2671   2587   2588      1
  2672   2587   2591      1
  2673   2588   2589      1
  2674   2588   2597      1
  2675   2589   2590      1
  2676   2589   2613      1
  2677   2590   2591      1
  2678   2590   2614      1
  2679   2592   2593      1
  2680   2592   2596      1
  2681   2593   2594      1
  2682   2593   2615      1
  2683   2594   2595      1
  2684   2594   2616      1
  2685   2595   4481      1
  2686   2597   2617      1
  2687   2597   2618      1
  2688   2598   2619      1
  2689   2598   2620      1
  2690   2621   2622      1
  2691   2621   2628      1
  2692   2621   2631      1
  2693   2621   2634      1
  2694   2622   2623      1
  2695   2622   2657      1
  2696   2623   2624      1
  2697   2623   2658      1
  2698   2624   2629      1
  2699   2624   2632      1
  2700   2625   2626      1
  2701   2625   2629      1
  2702   2625   2633      1
  2703   2626   2627      1
  2704   2627   2628      1
  2705   2627   2630      1
  2706   2628   2629      1
  2707   2628   2659      1
  2708   2629   2660      1
  2709   2630   2661      1
  2710   2631   2649      1
  2711   2631   2662      1
  2712   2631   2663      1
  2713   2632   2650      1
  2714   2632   2664      1
  2715   2633   2641      1
  2716   2633   2666      1
  2717   2634   2735      1
  2718   2635   2636      1
  2719   2635   2639      1
  2720   2635   2656      1
  2721   2636   2637      1
  2722   2636   2667      1
  2723   2637   2638      1
  2724   2637   2668      1
  2725   2638   2639      1
  2726   2640   2641      1
  2727   2640   2665      1
  2728   2642   2643      1
  2729   2642   2669      1
  2730   2643   2644      1
  2731   2643   2670      1
  2732   2645   2646      1
  2733   2646   2647      1
  2734   2647   2671      1
  2735   2648   2649      1
  2736   2648   2672      1
  2737   2650   2651      1
  2738   2650   2714      1
  2739   2651   2673      1
  2740   2651   2714      1
  2741   2652   2653      1
  2742   2652   2693      1
  2743   2652   2714      1
  2744   2653   2654      1
  2745   2653   2655      1
  2746   2654   2704      1
  2747   2655   2675      1
  2748   2655   2676      1
  2749   2656   2677      1
  2750   2656   2678      1
  2751   2674   2703      1
  2752   2679   2680      1
  2753   2679   2686      1
  2754   2679   2689      1
  2755   2679   2692      1
  2756   2680   2681      1
  2757   2680   2715      1
  2758   2681   2682      1
  2759   2681   2716      1
  2760   2682   2687      1
  2761   2682   2690      1
  2762   2683   2691      1
  2763   2684   2685      1
  2764   2685   2686      1
  2765   2685   2688      1
  2766   2686   2687      1
  2767   2686   2717      1
  2768   2687   2718      1
  2769   2688   2696      1
  2770   2688   2719      1
  2771   2689   2707      1
  2772   2689   2720      1
  2773   2689   2721      1
  2774   2690   2708      1
  2775   2691   2699      1
  2776   2691   2724      1
  2777   2692   4064      1
  2778   2693   2694      1
  2779   2693   2697      1
  2780   2694   2695      1
  2781   2694   2725      1
  2782   2695   2696      1
  2783   2695   2726      1
  2784   2696   2697      1
  2785   2698   2699      1
  2786   2698   2723      1
  2787   2699   2700      1
  2788   2700   2701      1
  2789   2700   2727      1
  2790   2701   2702      1
  2791   2701   2728      1
  2792   2703   2707      1
  2793   2704   2705      1
  2794   2705   2706      1
  2795   2705   2729      1
  2796   2706   2707      1
  2797   2706   2730      1
  2798   2708   2712      1
  2799   2709   2710      1
  2800   2709   2731      1
  2801   2710   2732      1
  2802   2711   2712      1
  2803   2711   2713      1
  2804   2713   2733      1
  2805   2713   2734      1
  2806   2736   2737      1
  2807   2736   2742      1
  2808   2736   2749      1
  2809   2737   2738      1
  2810   2737   2755      1
  2811   2738   2739      1
  2812   2738   2756      1
  2813   2739   2740      1
  2814   2739   2741      1
  2815   2740   2743      1
  2816   2740   2757      1
  2817   2740   2758      1
  2818   2743   2744      1
  2819   2743   2747      1
  2820   2744   2745      1
  2821   2744   2759      1
  2822   2745   2746      1
  2823   2745   2760      1
  2824   2746   2747      1
  2825   2746   2748      1
  2826   2748   2761      1
  2827   2748   2762      1
  2828   2749   2753      1
  2829   2749   2763      1
  2830   2749   2764      1
  2831   2750   2751      1
  2832   2751   2752      1
  2833   2751   2765      1
  2834   2752   2753      1
  2835   2752   2766      1
  2836   2753   2754      1
  2837   2767   2768      1
  2838   2767   2773      1
  2839   2767   2780      1
  2840   2768   2769      1
  2841   2768   2786      1
  2842   2769   2770      1
  2843   2769   2787      1
  2844   2770   2771      1
  2845   2770   2772      1
  2846   2771   2774      1
  2847   2771   2788      1
  2848   2771   2789      1
  2849   2774   2775      1
  2850   2774   2778      1
  2851   2775   2776      1
  2852   2775   2790      1
  2853   2776   2777      1
  2854   2776   2791      1
  2855   2777   2778      1
  2856   2777   2779      1
  2857   2779   2792      1
  2858   2779   2793      1
  2859   2780   2784      1
  2860   2780   2794      1
  2861   2780   2795      1
  2862   2781   2782      1
  2863   2781   4348      1
  2864   2782   2783      1
  2865   2782   2796      1
  2866   2783   2784      1
  2867   2783   2797      1
  2868   2784   2785      1
  2869   2798   2799      1
  2870   2798   2802      1
  2871   2798   2803      1
  2872   2799   2800      1
  2873   2800   2801      1
  2874   2800   2809      1
  2875   2801   2802      1
  2876   2801   2816      1
  2877   2802   2817      1
  2878   2803   2810      1
  2879   2803   2818      1
  2880   2804   2805      1
  2881   2804   2808      1
  2882   2804   2809      1
  2883   2806   2807      1
  2884   2806   3393      1
  2885   2807   2808      1
  2886   2807   2819      1
  2887   2808   2820      1
  2888   2809   2821      1
  2889   2810   2811      1
  2890   2810   2814      1
  2891   2811   2812      1
  2892   2811   2822      1
  2893   2812   2813      1
  2894   2812   2823      1
  2895   2813   2814      1
  2896   2813   2815      1
  2897   2815   2824      1
  2898   2815   2825      1
  2899   2826   2827      1
  2900   2826   2830      1
  2901   2826   2831      1
  2902   2827   2828      1
  2903   2828   2829      1
  2904   2828   2837      1
  2905   2829   2830      1
  2906   2829   2844      1
  2907   2830   2845      1
  2908   2831   2838      1
  2909   2831   2846      1
  2910   2832   2833      1
  2911   2832   2836      1
  2912   2832   2837      1
  2913   2833   3039      1
  2914   2834   2835      1
  2915   2835   2836      1
  2916   2835   2847      1
  2917   2836   2848      1
  2918   2837   2849      1
  2919   2838   2839      1
  2920   2838   2842      1
  2921   2839   2840      1
  2922   2839   2850      1
  2923   2840   2841      1
  2924   2840   2851      1
  2925   2841   2842      1
  2926   2841   2843      1
  2927   2843   2852      1
  2928   2843   2853      1
  2929   2854   2855      1
  2930   2854   2858      1
  2931   2854   2859      1
  2932   2856   2857      1
  2933   2856   2860      1
  2934   2857   2861      1
  2935   2858   2862      1
  2936   2859   2863      1
  2937   2860   2864      1
  2938   2860   4477      1
  2939   2865   2866      1
  2940   2865   2869      1
  2941   2866   2867      1
  2942   2867   2868      1
  2943   2867   2871      1
  2944   2868   2869      1
  2945   2868   2872      1
  2946   2869   2873      1
  2947   2870   2874      1
  2948   2871   2875      1
  2949   2876   2877      1
  2950   2876   2880      1
  2951   2876   2881      1
  2952   2877   2878      1
  2953   2878   2879      1
  2954   2878   2882      1
  2955   2879   2880      1
  2956   2879   2883      1
  2957   2880   2884      1
  2958   2881   2885      1
  2959   2882   2886      1
  2960   2887   2888      1
  2961   2887   2891      1
  2962   2887   2892      1
  2963   2888   2889      1
  2964   2889   2890      1
  2965   2889   2893      1
  2966   2890   2891      1
  2967   2890   2894      1
  2968   2891   2895      1
  2969   2892   2896      1
  2970   2892   4662      1
  2971   2893   2897      1
  2972   2898   2899      1
  2973   2898   2905      1
  2974   2898   2908      1
  2975   2899   2900      1
  2976   2899   2934      1
  2977   2900   2901      1
  2978   2900   2911      1
  2979   2900   2935      1
  2980   2901   2906      1
  2981   2901   2909      1
  2982   2901   2911      1
  2983   2902   2903      1
  2984   2902   2906      1
  2985   2902   2910      1
  2986   2903   2904      1
  2987   2904   2905      1
  2988   2904   2907      1
  2989   2905   2906      1
  2990   2905   2936      1
  2991   2906   2937      1
  2992   2907   2915      1
  2993   2907   2938      1
  2994   2908   2926      1
  2995   2908   2939      1
  2996   2908   2940      1
  2997   2909   2927      1
  2998   2909   2941      1
  2999   2909   2942      1
  3000   2910   2918      1
  3001   2910   2943      1
  3002   2912   2913      1
  3003   2912   2916      1
  3004   2913   2914      1
  3005   2913   2944      1
  3006   2914   2915      1
  3007   2914   2945      1
  3008   2915   2916      1
  3009   2917   2918      1
  3010   2917   2921      1
  3011   2918   2919      1
  3012   2919   2920      1
  3013   2919   2946      1
  3014   2920   2921      1
  3015   2920   2947      1
  3016   2921   2933      1
  3017   2922   2923      1
  3018   2922   2926      1
  3019   2923   2924      1
  3020   2923   2932      1
  3021   2924   2925      1
  3022   2924   2948      1
  3023   2925   2926      1
  3024   2925   2949      1
  3025   2927   2928      1
  3026   2927   2931      1
  3027   2928   2929      1
  3028   2928   2950      1
  3029   2929   2930      1
  3030   2929   2951      1
  3031   2930   2931      1
  3032   2930   2971      1
  3033   2930   3002      1
  3034   2932   2952      1
  3035   2932   2953      1
  3036   2933   2954      1
  3037   2933   2955      1
  3038   2956   2957      1
  3039   2956   2963      1
  3040   2956   2966      1
  3041   2956   2969      1
  3042   2957   2958      1
  3043   2957   2992      1
  3044   2958   2959      1
  3045   2958   2993      1
  3046   2959   2964      1
  3047   2959   2967      1
  3048   2959   2969      1
  3049   2960   2961      1
  3050   2960   2964      1
  3051   2960   2968      1
  3052   2961   2962      1
  3053   2962   2963      1
  3054   2962   2965      1
  3055   2963   2964      1
  3056   2963   2994      1
  3057   2964   2995      1
  3058   2965   2973      1
  3059   2965   2996      1
  3060   2966   2984      1
  3061   2966   2997      1
  3062   2966   2998      1
  3063   2967   2985      1
  3064   2967   2999      1
  3065   2967   3000      1
  3066   2968   2976      1
  3067   2968   3001      1
  3068   2970   2971      1
  3069   2970   2974      1
  3070   2971   2972      1
  3071   2972   2973      1
  3072   2972   3003      1
  3073   2973   2974      1
  3074   2975   2976      1
  3075   2975   2979      1
  3076   2976   2977      1
  3077   2977   2978      1
  3078   2977   3004      1
  3079   2978   2979      1
  3080   2978   3005      1
  3081   2979   2991      1
  3082   2980   2981      1
  3083   2980   2984      1
  3084   2981   2982      1
  3085   2981   2990      1
  3086   2982   2983      1
  3087   2982   3006      1
  3088   2983   2984      1
  3089   2983   3007      1
  3090   2985   2986      1
  3091   2985   2989      1
  3092   2986   2987      1
  3093   2986   3008      1
  3094   2987   2988      1
  3095   2987   3009      1
  3096   2988   2989      1
  3097   2988   3985      1
  3098   2990   3010      1
  3099   2990   3011      1
  3100   2991   3012      1
  3101   2991   3013      1
  3102   3014   3015      1
  3103   3014   3021      1
  3104   3014   3024      1
  3105   3014   3027      1
  3106   3015   3016      1
  3107   3015   3050      1
  3108   3016   3017      1
  3109   3016   3051      1
  3110   3017   3022      1
  3111   3017   3025      1
  3112   3018   3019      1
  3113   3018   3022      1
  3114   3018   3026      1
  3115   3019   3020      1
  3116   3020   3021      1
  3117   3020   3023      1
  3118   3021   3022      1
  3119   3021   3052      1
  3120   3022   3053      1
  3121   3023   3031      1
  3122   3023   3054      1
  3123   3024   3042      1
  3124   3024   3055      1
  3125   3024   3056      1
  3126   3025   3043      1
  3127   3025   3058      1
  3128   3026   3034      1
  3129   3026   3059      1
  3130   3027   3128      1
  3131   3028   3032      1
  3132   3028   3049      1
  3133   3029   3030      1
  3134   3029   3060      1
  3135   3030   3061      1
  3136   3031   3032      1
  3137   3033   3034      1
  3138   3033   3057      1
  3139   3034   3035      1
  3140   3035   3036      1
  3141   3035   3062      1
  3142   3036   3037      1
  3143   3036   3063      1
  3144   3037   4447      1
  3145   3038   3042      1
  3146   3039   3040      1
  3147   3040   3041      1
  3148   3040   3064      1
  3149   3041   3042      1
  3150   3041   3065      1
  3151   3043   3044      1
  3152   3043   3107      1
  3153   3044   3066      1
  3154   3044   3107      1
  3155   3045   3046      1
  3156   3045   3086      1
  3157   3045   3107      1
  3158   3046   3047      1
  3159   3046   3048      1
  3160   3047   3129      1
  3161   3048   3068      1
  3162   3048   3069      1
  3163   3049   3071      1
  3164   3067   3078      1
  3165   3072   3073      1
  3166   3072   3079      1
  3167   3072   3082      1
  3168   3072   3085      1
  3169   3073   3074      1
  3170   3073   3108      1
  3171   3074   3075      1
  3172   3074   3109      1
  3173   3075   3080      1
  3174   3075   3083      1
  3175   3076   3077      1
  3176   3076   3080      1
  3177   3076   3084      1
  3178   3077   3078      1
  3179   3078   3079      1
  3180   3078   3081      1
  3181   3079   3080      1
  3182   3079   3110      1
  3183   3080   3111      1
  3184   3081   3089      1
  3185   3081   3112      1
  3186   3082   3100      1
  3187   3082   3113      1
  3188   3082   3114      1
  3189   3083   3101      1
  3190   3083   3115      1
  3191   3083   3116      1
  3192   3084   3092      1
  3193   3084   3117      1
  3194   3086   3087      1
  3195   3086   3090      1
  3196   3087   3088      1
  3197   3087   3118      1
  3198   3088   3089      1
  3199   3088   3119      1
  3200   3089   3090      1
  3201   3091   3092      1
  3202   3091   3095      1
  3203   3092   3093      1
  3204   3093   3094      1
  3205   3093   3120      1
  3206   3094   3095      1
  3207   3094   3121      1
  3208   3096   3097      1
  3209   3096   3100      1
  3210   3097   3098      1
  3211   3098   3099      1
  3212   3098   3122      1
  3213   3099   3100      1
  3214   3099   3123      1
  3215   3101   3102      1
  3216   3101   3105      1
  3217   3102   3103      1
  3218   3102   3124      1
  3219   3103   3104      1
  3220   3103   3125      1
  3221   3104   3105      1
  3222   3104   3106      1
  3223   3106   3126      1
  3224   3106   3127      1
  3225   3130   3131      1
  3226   3130   3136      1
  3227   3131   3132      1
  3228   3131   3149      1
  3229   3132   3133      1
  3230   3132   3150      1
  3231   3133   3134      1
  3232   3133   3135      1
  3233   3134   3137      1
  3234   3134   3151      1
  3235   3134   3152      1
  3236   3137   3138      1
  3237   3137   3141      1
  3238   3138   3139      1
  3239   3138   3153      1
  3240   3140   3142      1
  3241   3142   3155      1
  3242   3142   3156      1
  3243   3143   3147      1
  3244   3143   3157      1
  3245   3144   3145      1
  3246   3144   3148      1
  3247   3145   3146      1
  3248   3145   3159      1
  3249   3146   3147      1
  3250   3146   3160      1
  3251   3147   3148      1
  3252   3161   3162      1
  3253   3161   3167      1
  3254   3161   3174      1
  3255   3162   3163      1
  3256   3162   3180      1
  3257   3163   3164      1
  3258   3163   3181      1
  3259   3164   3165      1
  3260   3164   3166      1
  3261   3165   3168      1
  3262   3165   3182      1
  3263   3165   3183      1
  3264   3168   3169      1
  3265   3168   3172      1
  3266   3169   3170      1
  3267   3169   3184      1
  3268   3170   3171      1
  3269   3170   3185      1
  3270   3171   3172      1
  3271   3171   3173      1
  3272   3173   3186      1
  3273   3173   3187      1
  3274   3174   3178      1
  3275   3174   3188      1
  3276   3174   3189      1
  3277   3175   3176      1
  3278   3176   3177      1
  3279   3176   3190      1
  3280   3177   3178      1
  3281   3177   3191      1
  3282   3178   3179      1
  3283   3192   3193      1
  3284   3192   3196      1
  3285   3192   3197      1
  3286   3194   3203      1
  3287   3195   3196      1
  3288   3195   3210      1
  3289   3196   3211      1
  3290   3197   3204      1
  3291   3197   3212      1
  3292   3198   3199      1
  3293   3198   3202      1
  3294   3198   3203      1
  3295   3199   3200      1
  3296   3200   3201      1
  3297   3200   3784      1
  3298   3201   3202      1
  3299   3201   3213      1
  3300   3203   3215      1
  3301   3204   3205      1
  3302   3204   3208      1
  3303   3205   3206      1
  3304   3205   3216      1
  3305   3206   3207      1
  3306   3206   3217      1
  3307   3207   3208      1
  3308   3207   3209      1
  3309   3209   3218      1
  3310   3209   3219      1
  3311   3220   3221      1
  3312   3220   3224      1
  3313   3220   3225      1
  3314   3221   3222      1
  3315   3222   3223      1
  3316   3222   3231      1
  3317   3223   3224      1
  3318   3223   3238      1
  3319   3224   3239      1
  3320   3225   3232      1
  3321   3225   3240      1
  3322   3226   3230      1
  3323   3226   3231      1
  3324   3227   3534      1
  3325   3229   3241      1
  3326   3231   3243      1
  3327   3232   3233      1
  3328   3232   3236      1
  3329   3233   3234      1
  3330   3233   3244      1
  3331   3234   3235      1
  3332   3234   3245      1
  3333   3235   3236      1
  3334   3235   3237      1
  3335   3237   3246      1
  3336   3237   3247      1
  3337   3248   3249      1
  3338   3248   3252      1
  3339   3248   3253      1
  3340   3249   3250      1
  3341   3250   3251      1
  3342   3250   3254      1
  3343   3251   3252      1
  3344   3251   3255      1
  3345   3252   3256      1
  3346   3253   3257      1
  3347   3254   3258      1
  3348   3259   3260      1
  3349   3259   3263      1
  3350   3259   3264      1
  3351   3261   3262      1
  3352   3261   3265      1
  3353   3262   3263      1
  3354   3262   3266      1
  3355   3263   3267      1
  3356   3264   3268      1
  3357   3265   3269      1
  3358   3270   3271      1
  3359   3270   3274      1
  3360   3270   3275      1
  3361   3271   3272      1
  3362   3272   3273      1
  3363   3272   3276      1
  3364   3273   3274      1
  3365   3273   3277      1
  3366   3274   3278      1
  3367   3275   3279      1
  3368   3276   3280      1
  3369   3281   3282      1
  3370   3281   3285      1
  3371   3281   3286      1
  3372   3282   3283      1
  3373   3283   3284      1
  3374   3283   3287      1
  3375   3284   3285      1
  3376   3284   3288      1
  3377   3285   3289      1
  3378   3286   3290      1
  3379   3286   3843      1
  3380   3287   3291      1
  3381   3292   3293      1
  3382   3292   3296      1
  3383   3292   3297      1
  3384   3293   3294      1
  3385   3294   3295      1
  3386   3294   3298      1
  3387   3295   3296      1
  3388   3295   3299      1
  3389   3296   3300      1
  3390   3297   3301      1
  3391   3298   3302      1
  3392   3303   3304      1
  3393   3303   3310      1
  3394   3303   3313      1
  3395   3303   3316      1
  3396   3304   3305      1
  3397   3304   3339      1
  3398   3305   3306      1
  3399   3305   3340      1
  3400   3306   3311      1
  3401   3306   3314      1
  3402   3306   3316      1
  3403   3307   3308      1
  3404   3307   3311      1
  3405   3307   3315      1
  3406   3308   3309      1
  3407   3309   3310      1
  3408   3309   3312      1
  3409   3310   3311      1
  3410   3310   3341      1
  3411   3311   3342      1
  3412   3312   3320      1
  3413   3312   3343      1
  3414   3313   3331      1
  3415   3313   3344      1
  3416   3313   3345      1
  3417   3314   3332      1
  3418   3314   3346      1
  3419   3314   3347      1
  3420   3315   3323      1
  3421   3315   3348      1
  3422   3317   3318      1
  3423   3317   3321      1
  3424   3318   3319      1
  3425   3318   3349      1
  3426   3319   3320      1
  3427   3319   3350      1
  3428   3320   3321      1
  3429   3322   3323      1
  3430   3322   3326      1
  3431   3323   3324      1
  3432   3324   3325      1
  3433   3324   3351      1
  3434   3325   3326      1
  3435   3325   3352      1
  3436   3326   3338      1
  3437   3327   3328      1
  3438   3327   3331      1
  3439   3328   3329      1
  3440   3328   3337      1
  3441   3329   3330      1
  3442   3329   3353      1
  3443   3330   3331      1
  3444   3330   3354      1
  3445   3332   3333      1
  3446   3332   3336      1
  3447   3333   3334      1
  3448   3333   3355      1
  3449   3334   3335      1
  3450   3334   3356      1
  3451   3335   3336      1
  3452   3335   3376      1
  3453   3335   3407      1
  3454   3337   3357      1
  3455   3337   3358      1
  3456   3338   3359      1
  3457   3338   3360      1
  3458   3361   3362      1
  3459   3361   3368      1
  3460   3361   3371      1
  3461   3361   3374      1
  3462   3362   3363      1
  3463   3362   3397      1
  3464   3363   3364      1
  3465   3363   3398      1
  3466   3364   3369      1
  3467   3364   3372      1
  3468   3364   3374      1
  3469   3365   3366      1
  3470   3365   3369      1
  3471   3365   3373      1
  3472   3366   3367      1
  3473   3367   3368      1
  3474   3367   3370      1
  3475   3368   3369      1
  3476   3368   3399      1
  3477   3369   3400      1
  3478   3370   3378      1
  3479   3370   3401      1
  3480   3371   3389      1
  3481   3371   3402      1
  3482   3371   3403      1
  3483   3372   3390      1
  3484   3372   3404      1
  3485   3372   3405      1
  3486   3373   3381      1
  3487   3373   3406      1
  3488   3375   3376      1
  3489   3375   3379      1
  3490   3376   3377      1
  3491   3377   3378      1
  3492   3377   3408      1
  3493   3378   3379      1
  3494   3380   3381      1
  3495   3380   3384      1
  3496   3382   3383      1
  3497   3382   3409      1
  3498   3383   3410      1
  3499   3384   3396      1
  3500   3385   3386      1
  3501   3385   3389      1
  3502   3386   3387      1
  3503   3386   3395      1
  3504   3387   3388      1
  3505   3387   3411      1
  3506   3388   3389      1
  3507   3388   3412      1
  3508   3390   3391      1
  3509   3390   3394      1
  3510   3391   3392      1
  3511   3391   3413      1
  3512   3392   3414      1
  3513   3395   3415      1
  3514   3395   3416      1
  3515   3396   3418      1
  3516   3419   3420      1
  3517   3419   3426      1
  3518   3419   3429      1
  3519   3419   3432      1
  3520   3420   3421      1
  3521   3421   3422      1
  3522   3422   3427      1
  3523   3422   3430      1
  3524   3423   3424      1
  3525   3423   3427      1
  3526   3423   3431      1
  3527   3424   3425      1
  3528   3425   3426      1
  3529   3425   3428      1
  3530   3426   3427      1
  3531   3426   3457      1
  3532   3427   3458      1
  3533   3428   3436      1
  3534   3428   3459      1
  3535   3429   3447      1
  3536   3429   3460      1
  3537   3429   3461      1
  3538   3430   3448      1
  3539   3430   3463      1
  3540   3431   3439      1
  3541   3431   3464      1
  3542   3432   3533      1
  3543   3433   3434      1
  3544   3433   3437      1
  3545   3433   3454      1
  3546   3434   3435      1
  3547   3434   3465      1
  3548   3435   3436      1
  3549   3435   3466      1
  3550   3436   3437      1
  3551   3438   3439      1
  3552   3438   3462      1
  3553   3439   3440      1
  3554   3440   3441      1
  3555   3440   3467      1
  3556   3441   3442      1
  3557   3441   3468      1
  3558   3443   3447      1
  3559   3444   3445      1
  3560   3445   3446      1
  3561   3445   3469      1
  3562   3448   3449      1
  3563   3449   3471      1
  3564   3449   3512      1
  3565   3450   3451      1
  3566   3450   3491      1
  3567   3451   3452      1
  3568   3451   3453      1
  3569   3453   3473      1
  3570   3453   3474      1
  3571   3454   3475      1
  3572   3454   3476      1
  3573   3472   3490      1
  3574   3477   3478      1
  3575   3477   3484      1
  3576   3477   3487      1
  3577   3478   3479      1
  3578   3478   3513      1
  3579   3479   3480      1
  3580   3479   3514      1
  3581   3480   3485      1
  3582   3481   3482      1
  3583   3481   3485      1
  3584   3481   3489      1
  3585   3482   3483      1
  3586   3483   3484      1
  3587   3484   3485      1
  3588   3484   3515      1
  3589   3485   3516      1
  3590   3486   3494      1
  3591   3486   3517      1
  3592   3487   3518      1
  3593   3487   3519      1
  3594   3488   3506      1
  3595   3488   3520      1
  3596   3488   3521      1
  3597   3489   3497      1
  3598   3489   3522      1
  3599   3491   3492      1
  3600   3491   3495      1
  3601   3492   3493      1
  3602   3492   3523      1
  3603   3493   3494      1
  3604   3493   3524      1
  3605   3494   3495      1
  3606   3496   3497      1
  3607   3496   3500      1
  3608   3497   3498      1
  3609   3498   3499      1
  3610   3498   3525      1
  3611   3499   3500      1
  3612   3499   3526      1
  3613   3501   3505      1
  3614   3502   3503      1
  3615   3504   3528      1
  3616   3506   3510      1
  3617   3507   3508      1
  3618   3507   3529      1
  3619   3508   3530      1
  3620   3509   3510      1
  3621   3509   3511      1
  3622   3511   3531      1
  3623   3511   3532      1
  3624   3535   3536      1
  3625   3535   3541      1
  3626   3535   3548      1
  3627   3536   3537      1
  3628   3536   3554      1
  3629   3537   3538      1
  3630   3537   3555      1
  3631   3538   3539      1
  3632   3538   3540      1
  3633   3539   3542      1
  3634   3539   3556      1
  3635   3539   3557      1
  3636   3542   3543      1
  3637   3542   3546      1
  3638   3543   3544      1
  3639   3543   3558      1
  3640   3544   3545      1
  3641   3544   3559      1
  3642   3545   3546      1
  3643   3545   3547      1
  3644   3547   3560      1
  3645   3547   3561      1
  3646   3548   3552      1
  3647   3548   3562      1
  3648   3548   3563      1
  3649   3549   3550      1
  3650   3549   3553      1
  3651   3550   3551      1
  3652   3550   3564      1
  3653   3551   3552      1
  3654   3551   3565      1
  3655   3552   3553      1
  3656   3566   3567      1
  3657   3566   3572      1
  3658   3566   3579      1
  3659   3567   3568      1
  3660   3567   3585      1
  3661   3568   3569      1
  3662   3568   3586      1
  3663   3569   3570      1
  3664   3569   3571      1
  3665   3570   3573      1
  3666   3570   3587      1
  3667   3570   3588      1
  3668   3573   3574      1
  3669   3573   3577      1
  3670   3574   3575      1
  3671   3574   3589      1
  3672   3575   3576      1
  3673   3575   3590      1
  3674   3576   3577      1
  3675   3576   3578      1
  3676   3578   3591      1
  3677   3578   3592      1
  3678   3579   3583      1
  3679   3579   3593      1
  3680   3579   3594      1
  3681   3580   3605      1
  3682   3581   3582      1
  3683   3581   3595      1
  3684   3582   3583      1
  3685   3582   3596      1
  3686   3583   3584      1
  3687   3584   4410      1
  3688   3597   3598      1
  3689   3597   3601      1
  3690   3597   3602      1
  3691   3598   3599      1
  3692   3599   3600      1
  3693   3599   3608      1
  3694   3600   3601      1
  3695   3600   3615      1
  3696   3601   3616      1
  3697   3602   3609      1
  3698   3602   3617      1
  3699   3603   3607      1
  3700   3603   3608      1
  3701   3605   3606      1
  3702   3606   3607      1
  3703   3606   3618      1
  3704   3607   3619      1
  3705   3608   3620      1
  3706   3609   3610      1
  3707   3609   3613      1
  3708   3610   3611      1
  3709   3610   3621      1
  3710   3611   3612      1
  3711   3611   3622      1
  3712   3612   3613      1
  3713   3612   3614      1
  3714   3614   3623      1
  3715   3614   3624      1
  3716   3625   3626      1
  3717   3625   3629      1
  3718   3625   3630      1
  3719   3626   3627      1
  3720   3627   3628      1
  3721   3627   3636      1
  3722   3628   3629      1
  3723   3628   3643      1
  3724   3629   3644      1
  3725   3630   3637      1
  3726   3630   3645      1
  3727   3631   3632      1
  3728   3631   3635      1
  3729   3631   3636      1
  3730   3632   3633      1
  3731   3633   3634      1
  3732   3634   3635      1
  3733   3634   3646      1
  3734   3635   3647      1
  3735   3636   3648      1
  3736   3637   3638      1
  3737   3637   3641      1
  3738   3638   3639      1
  3739   3639   3640      1
  3740   3640   3641      1
  3741   3640   3642      1
  3742   3642   3651      1
  3743   3642   3652      1
  3744   3653   3654      1
  3745   3653   3657      1
  3746   3653   3658      1
  3747   3654   3655      1
  3748   3655   3656      1
  3749   3655   3659      1
  3750   3656   3657      1
  3751   3656   3660      1
  3752   3657   3661      1
  3753   3658   3662      1
  3754   3664   3668      1
  3755   3664   3669      1
  3756   3665   3666      1
  3757   3666   3670      1
  3758   3667   3668      1
  3759   3667   3671      1
  3760   3668   3672      1
  3761   3669   3673      1
  3762   3670   3674      1
  3763   3675   3676      1
  3764   3675   3679      1
  3765   3675   3680      1
  3766   3676   3677      1
  3767   3677   3678      1
  3768   3677   3681      1
  3769   3678   3679      1
  3770   3678   3682      1
  3771   3679   3683      1
  3772   3680   3684      1
  3773   3681   3685      1
  3774   3686   3687      1
  3775   3686   3690      1
  3776   3686   3691      1
  3777   3687   3688      1
  3778   3689   3693      1
  3779   3690   3694      1
  3780   3691   3695      1
  3781   3692   3696      1
  3782   3697   3698      1
  3783   3697   3701      1
  3784   3697   3702      1
  3785   3698   3699      1
  3786   3699   3700      1
  3787   3699   3703      1
  3788   3700   3701      1
  3789   3700   3704      1
  3790   3701   3705      1
  3791   3702   3706      1
  3792   3703   3707      1
  3793   3708   3709      1
  3794   3708   3715      1
  3795   3708   3718      1
  3796   3708   3721      1
  3797   3709   3710      1
  3798   3709   3744      1
  3799   3710   3711      1
  3800   3710   3745      1
  3801   3711   3716      1
  3802   3711   3719      1
  3803   3711   3721      1
  3804   3712   3713      1
  3805   3712   3716      1
  3806   3712   3720      1
  3807   3713   3714      1
  3808   3714   3715      1
  3809   3714   3717      1
  3810   3715   3716      1
  3811   3715   3746      1
  3812   3716   3747      1
  3813   3717   3725      1
  3814   3717   3748      1
  3815   3718   3736      1
  3816   3718   3749      1
  3817   3718   3750      1
  3818   3719   3737      1
  3819   3719   3751      1
  3820   3719   3752      1
  3821   3720   3728      1
  3822   3720   3753      1
  3823   3722   3723      1
  3824   3722   4554      1
  3825   3723   3724      1
  3826   3723   3754      1
  3827   3724   3725      1
  3828   3724   3755      1
  3829   3725   3726      1
  3830   3726   4553      1
  3831   3727   3728      1
  3832   3727   3731      1
  3833   3728   3729      1
  3834   3729   3730      1
  3835   3729   3756      1
  3836   3730   3731      1
  3837   3730   3757      1
  3838   3731   3743      1
  3839   3732   3733      1
  3840   3732   3736      1
  3841   3733   3734      1
  3842   3733   3742      1
  3843   3734   3735      1
  3844   3734   3758      1
  3845   3735   3736      1
  3846   3735   3759      1
  3847   3737   3738      1
  3848   3737   3741      1
  3849   3738   3739      1
  3850   3738   3760      1
  3851   3739   3740      1
  3852   3739   3761      1
  3853   3740   3741      1
  3854   3740   3781      1
  3855   3740   3812      1
  3856   3742   3762      1
  3857   3742   3763      1
  3858   3743   3764      1
  3859   3743   3765      1
  3860   3766   3767      1
  3861   3766   3773      1
  3862   3766   3776      1
  3863   3766   3779      1
  3864   3767   3768      1
  3865   3767   3802      1
  3866   3768   3769      1
  3867   3768   3803      1
  3868   3769   3774      1
  3869   3769   3777      1
  3870   3769   3779      1
  3871   3770   3771      1
  3872   3770   3774      1
  3873   3770   3778      1
  3874   3771   3772      1
  3875   3772   3773      1
  3876   3772   3775      1
  3877   3773   3774      1
  3878   3773   3804      1
  3879   3774   3805      1
  3880   3775   3783      1
  3881   3775   3806      1
  3882   3776   3794      1
  3883   3776   3807      1
  3884   3776   3808      1
  3885   3777   3795      1
  3886   3777   3809      1
  3887   3777   3810      1
  3888   3778   3786      1
  3889   3778   3811      1
  3890   3780   3781      1
  3891   3781   3782      1
  3892   3782   3783      1
  3893   3782   3813      1
  3894   3783   3784      1
  3895   3785   3786      1
  3896   3785   3789      1
  3897   3786   3787      1
  3898   3787   3788      1
  3899   3787   3814      1
  3900   3788   3789      1
  3901   3788   3815      1
  3902   3789   3801      1
  3903   3790   3791      1
  3904   3790   3794      1
  3905   3791   3792      1
  3906   3791   3800      1
  3907   3792   3793      1
  3908   3792   3816      1
  3909   3793   3794      1
  3910   3793   3817      1
  3911   3795   3796      1
  3912   3795   3799      1
  3913   3796   3797      1
  3914   3796   3818      1
  3915   3797   3798      1
  3916   3797   3819      1
  3917   3800   3820      1
  3918   3800   3821      1
  3919   3801   3822      1
  3920   3801   3823      1
  3921   3824   3825      1
  3922   3824   3831      1
  3923   3824   3834      1
  3924   3824   3837      1
  3925   3825   3826      1
  3926   3825   3860      1
  3927   3826   3827      1
  3928   3826   3861      1
  3929   3827   3832      1
  3930   3827   3835      1
  3931   3828   3829      1
  3932   3828   3832      1
  3933   3828   3836      1
  3934   3829   3830      1
  3935   3830   3831      1
  3936   3830   3833      1
  3937   3831   3832      1
  3938   3831   3862      1
  3939   3832   3863      1
  3940   3833   3841      1
  3941   3833   3864      1
  3942   3834   3852      1
  3943   3834   3865      1
  3944   3834   3866      1
  3945   3835   3853      1
  3946   3835   3867      1
  3947   3835   3868      1
  3948   3836   3844      1
  3949   3836   3869      1
  3950   3837   3938      1
  3951   3838   3839      1
  3952   3838   3842      1
  3953   3838   3859      1
  3954   3839   3840      1
  3955   3839   3870      1
  3956   3840   3841      1
  3957   3840   3871      1
  3958   3841   3842      1
  3959   3843   3844      1
  3960   3844   3845      1
  3961   3845   3846      1
  3962   3845   3872      1
  3963   3846   3847      1
  3964   3846   3873      1
  3965   3848   3852      1
  3966   3849   3850      1
  3967   3849   4656      1
  3968   3850   3851      1
  3969   3850   3874      1
  3970   3851   3852      1
  3971   3851   3875      1
  3972   3853   3854      1
  3973   3853   3917      1
  3974   3854   3876      1
  3975   3854   3917      1
  3976   3855   3856      1
  3977   3855   3896      1
  3978   3855   3917      1
  3979   3856   3857      1
  3980   3856   3858      1
  3981   3857   3939      1
  3982   3858   3878      1
  3983   3858   3879      1
  3984   3859   3880      1
  3985   3859   3881      1
  3986   3877   3895      1
  3987   3882   3883      1
  3988   3882   3889      1
  3989   3882   3892      1
  3990   3883   3884      1
  3991   3883   3918      1
  3992   3884   3885      1
  3993   3884   3919      1
  3994   3885   3890      1
  3995   3885   3893      1
  3996   3886   3887      1
  3997   3886   3890      1
  3998   3886   3894      1
  3999   3887   3888      1
  4000   3888   3889      1
  4001   3888   3891      1
  4002   3889   3890      1
  4003   3889   3920      1
  4004   3890   3921      1
  4005   3891   3899      1
  4006   3891   3922      1
  4007   3892   3910      1
  4008   3892   3923      1
  4009   3892   3924      1
  4010   3893   3911      1
  4011   3893   3925      1
  4012   3893   3926      1
  4013   3894   3902      1
  4014   3894   3927      1
  4015   3895   3909      1
  4016   3896   3897      1
  4017   3896   3900      1
  4018   3897   3898      1
  4019   3897   3928      1
  4020   3898   3899      1
  4021   3898   3929      1
  4022   3899   3900      1
  4023   3901   3902      1
  4024   3901   3905      1
  4025   3902   3903      1
  4026   3903   3904      1
  4027   3903   3930      1
  4028   3904   3905      1
  4029   3904   3931      1
  4030   3906   3910      1
  4031   3907   3908      1
  4032   3908   3909      1
  4033   3908   3932      1
  4034   3909   3910      1
  4035   3909   3933      1
  4036   3911   3912      1
  4037   3911   3915      1
  4038   3912   3913      1
  4039   3912   3934      1
  4040   3913   3914      1
  4041   3913   3935      1
  4042   3914   3915      1
  4043   3914   3916      1
  4044   3916   3936      1
  4045   3916   3937      1
  4046   3940   3941      1
  4047   3940   3946      1
  4048   3940   3953      1
  4049   3941   3942      1
  4050   3941   3959      1
  4051   3942   3943      1
  4052   3942   3960      1
  4053   3943   3944      1
  4054   3943   3945      1
  4055   3944   3947      1
  4056   3944   3961      1
  4057   3944   3962      1
  4058   3947   3948      1
  4059   3947   3951      1
  4060   3948   3949      1
  4061   3948   3963      1
  4062   3949   3950      1
  4063   3949   3964      1
  4064   3950   3951      1
  4065   3950   3952      1
  4066   3952   3965      1
  4067   3952   3966      1
  4068   3953   3957      1
  4069   3953   3967      1
  4070   3953   3968      1
  4071   3954   3955      1
  4072   3955   3956      1
  4073   3955   3969      1
  4074   3956   3957      1
  4075   3956   3970      1
  4076   3957   3958      1
  4077   3971   3972      1
  4078   3971   3977      1
  4079   3971   3984      1
  4080   3972   3973      1
  4081   3972   3990      1
  4082   3973   3974      1
  4083   3973   3991      1
  4084   3974   3975      1
  4085   3974   3976      1
  4086   3975   3978      1
  4087   3975   3992      1
  4088   3975   3993      1
  4089   3978   3979      1
  4090   3978   3982      1
  4091   3979   3980      1
  4092   3979   3994      1
  4093   3980   3981      1
  4094   3980   3995      1
  4095   3981   3982      1
  4096   3981   3983      1
  4097   3983   3996      1
  4098   3983   3997      1
  4099   3984   3988      1
  4100   3984   3998      1
  4101   3984   3999      1
  4102   3985   3986      1
  4103   3986   3987      1
  4104   3986   4000      1
  4105   3987   3988      1
  4106   3987   4001      1
  4107   3988   3989      1
  4108   4002   4003      1
  4109   4002   4006      1
  4110   4002   4007      1
  4111   4003   4004      1
  4112   4004   4005      1
  4113   4004   4013      1
  4114   4005   4006      1
  4115   4005   4020      1
  4116   4006   4021      1
  4117   4007   4014      1
  4118   4007   4022      1
  4119   4008   4009      1
  4120   4008   4012      1
  4121   4008   4013      1
  4122   4010   4011      1
  4123   4011   4023      1
  4124   4012   4024      1
  4125   4013   4025      1
  4126   4014   4015      1
  4127   4014   4018      1
  4128   4015   4016      1
  4129   4015   4026      1
  4130   4016   4017      1
  4131   4016   4027      1
  4132   4017   4018      1
  4133   4017   4019      1
  4134   4019   4028      1
  4135   4019   4029      1
  4136   4030   4031      1
  4137   4030   4034      1
  4138   4030   4035      1
  4139   4031   4032      1
  4140   4032   4033      1
  4141   4032   4041      1
  4142   4033   4034      1
  4143   4033   4048      1
  4144   4034   4049      1
  4145   4035   4042      1
  4146   4036   4037      1
  4147   4037   4311      1
  4148   4038   4039      1
  4149   4039   4040      1
  4150   4039   4051      1
  4151   4040   4052      1
  4152   4041   4053      1
  4153   4042   4046      1
  4154   4043   4044      1
  4155   4043   4054      1
  4156   4044   4045      1
  4157   4044   4055      1
  4158   4045   4047      1
  4159   4047   4056      1
  4160   4058   4059      1
  4161   4058   4062      1
  4162   4058   4063      1
  4163   4059   4060      1
  4164   4060   4061      1
  4165   4060   4064      1
  4166   4061   4062      1
  4167   4061   4065      1
  4168   4062   4066      1
  4169   4063   4067      1
  4170   4064   4068      1
  4171   4069   4070      1
  4172   4069   4073      1
  4173   4069   4074      1
  4174   4070   4071      1
  4175   4072   4076      1
  4176   4073   4077      1
  4177   4074   4078      1
  4178   4075   4079      1
  4179   4080   4087      1
  4180   4080   4090      1
  4181   4080   4093      1
  4182   4081   4082      1
  4183   4081   4116      1
  4184   4083   4088      1
  4185   4083   4093      1
  4186   4084   4085      1
  4187   4084   4088      1
  4188   4085   4086      1
  4189   4086   4087      1
  4190   4086   4089      1
  4191   4087   4088      1
  4192   4089   4097      1
  4193   4089   4120      1
  4194   4090   4108      1
  4195   4090   4121      1
  4196   4090   4122      1
  4197   4091   4109      1
  4198   4091   4123      1
  4199   4091   4124      1
  4200   4092   4100      1
  4201   4092   4125      1
  4202   4094   4095      1
  4203   4094   4098      1
  4204   4095   4096      1
  4205   4096   4097      1
  4206   4097   4098      1
  4207   4099   4103      1
  4208   4100   4101      1
  4209   4101   4128      1
  4210   4102   4103      1
  4211   4102   4129      1
  4212   4103   4115      1
  4213   4104   4105      1
  4214   4104   4108      1
  4215   4105   4106      1
  4216   4106   4107      1
  4217   4106   4130      1
  4218   4107   4108      1
  4219   4107   4131      1
  4220   4109   4110      1
  4221   4109   4113      1
  4222   4110   4111      1
  4223   4110   4132      1
  4224   4111   4112      1
  4225   4112   4113      1
  4226   4112   4184      1
  4227   4114   4134      1
  4228   4114   4135      1
  4229   4115   4136      1
  4230   4115   4137      1
  4231   4138   4139      1
  4232   4138   4148      1
  4233   4138   4151      1
  4234   4139   4140      1
  4235   4139   4174      1
  4236   4140   4141      1
  4237   4140   4175      1
  4238   4141   4151      1
  4239   4142   4143      1
  4240   4142   4146      1
  4241   4142   4150      1
  4242   4143   4144      1
  4243   4144   4145      1
  4244   4144   4147      1
  4245   4145   4146      1
  4246   4145   4176      1
  4247   4146   4177      1
  4248   4147   4155      1
  4249   4147   4178      1
  4250   4148   4166      1
  4251   4148   4179      1
  4252   4148   4180      1
  4253   4149   4167      1
  4254   4149   4182      1
  4255   4150   4158      1
  4256   4150   4183      1
  4257   4152   4153      1
  4258   4154   4155      1
  4259   4154   4185      1
  4260   4155   4156      1
  4261   4157   4158      1
  4262   4157   4161      1
  4263   4158   4159      1
  4264   4159   4160      1
  4265   4159   4186      1
  4266   4160   4161      1
  4267   4160   4187      1
  4268   4161   4173      1
  4269   4162   4163      1
  4270   4162   4166      1
  4271   4163   4164      1
  4272   4163   4172      1
  4273   4164   4165      1
  4274   4164   4188      1
  4275   4165   4166      1
  4276   4165   4189      1
  4277   4167   4168      1
  4278   4167   4171      1
  4279   4168   4169      1
  4280   4168   4190      1
  4281   4169   4170      1
  4282   4169   4191      1
  4283   4171   4604      1
  4284   4172   4192      1
  4285   4172   4193      1
  4286   4173   4194      1
  4287   4173   4195      1
  4288   4196   4197      1
  4289   4196   4203      1
  4290   4196   4206      1
  4291   4196   4209      1
  4292   4197   4232      1
  4293   4198   4199      1
  4294   4198   4233      1
  4295   4199   4204      1
  4296   4199   4207      1
  4297   4200   4204      1
  4298   4200   4208      1
  4299   4201   4202      1
  4300   4202   4203      1
  4301   4202   4205      1
  4302   4203   4234      1
  4303   4204   4235      1
  4304   4205   4213      1
  4305   4205   4236      1
  4306   4206   4224      1
  4307   4206   4237      1
  4308   4206   4238      1
  4309   4207   4225      1
  4310   4207   4240      1
  4311   4208   4216      1
  4312   4208   4241      1
  4313   4209   4310      1
  4314   4210   4211      1
  4315   4210   4214      1
  4316   4210   4231      1
  4317   4211   4212      1
  4318   4211   4242      1
  4319   4212   4213      1
  4320   4212   4243      1
  4321   4213   4214      1
  4322   4215   4216      1
  4323   4215   4239      1
  4324   4216   4217      1
  4325   4217   4218      1
  4326   4217   4244      1
  4327   4218   4219      1
  4328   4218   4245      1
  4329   4220   4224      1
  4330   4221   4222      1
  4331   4223   4224      1
  4332   4223   4247      1
  4333   4225   4226      1
  4334   4225   4229      1
  4335   4225   4289      1
  4336   4226   4248      1
  4337   4226   4289      1
  4338   4227   4228      1
  4339   4227   4268      1
  4340   4227   4289      1
  4341   4228   4229      1
  4342   4228   4230      1
  4343   4230   4250      1
  4344   4230   4251      1
  4345   4231   4252      1
  4346   4231   4253      1
  4347   4249   4267      1
  4348   4254   4255      1
  4349   4254   4261      1
  4350   4254   4264      1
  4351   4254   4267      1
  4352   4255   4290      1
  4353   4256   4257      1
  4354   4256   4291      1
  4355   4257   4265      1
  4356   4258   4259      1
  4357   4258   4262      1
  4358   4259   4260      1
  4359   4260   4261      1
  4360   4260   4263      1
  4361   4261   4262      1
  4362   4261   4292      1
  4363   4263   4271      1
  4364   4263   4294      1
  4365   4264   4282      1
  4366   4264   4295      1
  4367   4264   4296      1
  4368   4265   4283      1
  4369   4265   4297      1
  4370   4265   4298      1
  4371   4266   4274      1
  4372   4266   4299      1
  4373   4268   4269      1
  4374   4268   4272      1
  4375   4269   4270      1
  4376   4269   4300      1
  4377   4270   4271      1
  4378   4270   4301      1
  4379   4271   4272      1
  4380   4273   4274      1
  4381   4273   4277      1
  4382   4274   4275      1
  4383   4275   4276      1
  4384   4275   4302      1
  4385   4276   4277      1
  4386   4276   4303      1
  4387   4278   4279      1
  4388   4279   4280      1
  4389   4280   4281      1
  4390   4280   4304      1
  4391   4281   4305      1
  4392   4283   4287      1
  4393   4284   4306      1
  4394   4285   4307      1
  4395   4286   4288      1
  4396   4288   4308      1
  4397   4288   4309      1
  4398   4312   4313      1
  4399   4312   4318      1
  4400   4312   4325      1
  4401   4313   4314      1
  4402   4313   4331      1
  4403   4314   4315      1
  4404   4314   4332      1
  4405   4315   4316      1
  4406   4315   4317      1
  4407   4316   4319      1
  4408   4316   4333      1
  4409   4316   4334      1
  4410   4319   4320      1
  4411   4319   4323      1
  4412   4320   4321      1
  4413   4320   4335      1
  4414   4321   4322      1
  4415   4321   4336      1
  4416   4322   4323      1
  4417   4322   4324      1
  4418   4324   4337      1
  4419   4324   4338      1
  4420   4325   4329      1
  4421   4325   4339      1
  4422   4325   4340      1
  4423   4326   4327      1
  4424   4327   4328      1
  4425   4327   4341      1
  4426   4328   4329      1
  4427   4328   4342      1
  4428   4329   4330      1
  4429   4343   4344      1
  4430   4343   4349      1
  4431   4343   4356      1
  4432   4344   4345      1
  4433   4344   4362      1
  4434   4345   4346      1
  4435   4345   4363      1
  4436   4346   4347      1
  4437   4346   4348      1
  4438   4347   4350      1
  4439   4347   4364      1
  4440   4347   4365      1
  4441   4350   4351      1
  4442   4350   4354      1
  4443   4351   4352      1
  4444   4351   4366      1
  4445   4353   4355      1
  4446   4355   4368      1
  4447   4355   4369      1
  4448   4356   4360      1
  4449   4356   4370      1
  4450   4356   4371      1
  4451   4357   4358      1
  4452   4357   4361      1
  4453   4358   4359      1
  4454   4358   4372      1
  4455   4359   4360      1
  4456   4359   4373      1
  4457   4360   4361      1
  4458   4374   4378      1
  4459   4374   4379      1
  4460   4375   4376      1
  4461   4376   4377      1
  4462   4376   4385      1
  4463   4377   4392      1
  4464   4378   4393      1
  4465   4379   4386      1
  4466   4379   4394      1
  4467   4380   4381      1
  4468   4380   4384      1
  4469   4380   4385      1
  4470   4381   4382      1
  4471   4382   4383      1
  4472   4383   4384      1
  4473   4383   4395      1
  4474   4384   4396      1
  4475   4385   4397      1
  4476   4386   4387      1
  4477   4386   4390      1
  4478   4387   4388      1
  4479   4387   4398      1
  4480   4388   4389      1
  4481   4388   4399      1
  4482   4389   4390      1
  4483   4389   4391      1
  4484   4391   4400      1
  4485   4391   4401      1
  4486   4402   4406      1
  4487   4402   4407      1
  4488   4404   4405      1
  4489   4404   4413      1
  4490   4405   4406      1
  4491   4405   4420      1
  4492   4406   4421      1
  4493   4407   4414      1
  4494   4408   4412      1
  4495   4409   4694      1
  4496   4410   4411      1
  4497   4411   4412      1
  4498   4411   4423      1
  4499   4412   4424      1
  4500   4413   4425      1
  4501   4414   4415      1
  4502   4414   4418      1
  4503   4415   4416      1
  4504   4416   4417      1
  4505   4416   4427      1
  4506   4417   4418      1
  4507   4417   4419      1
  4508   4419   4428      1
  4509   4419   4429      1
  4510   4430   4431      1
  4511   4430   4434      1
  4512   4430   4435      1
  4513   4431   4432      1
  4514   4432   4433      1
  4515   4432   4436      1
  4516   4433   4434      1
  4517   4433   4437      1
  4518   4434   4438      1
  4519   4435   4439      1
  4520   4436   4440      1
  4521   4441   4442      1
  4522   4441   4445      1
  4523   4441   4446      1
  4524   4442   4443      1
  4525   4443   4444      1
  4526   4443   4447      1
  4527   4444   4445      1
  4528   4444   4448      1
  4529   4445   4449      1
  4530   4446   4450      1
  4531   4447   4451      1
  4532   4452   4453      1
  4533   4452   4456      1
  4534   4452   4457      1
  4535   4453   4454      1
  4536   4454   4455      1
  4537   4454   4458      1
  4538   4455   4456      1
  4539   4455   4459      1
  4540   4456   4460      1
  4541   4457   4461      1
  4542   4458   4462      1
  4543   4463   4464      1
  4544   4463   4470      1
  4545   4463   4473      1
  4546   4463   4476      1
  4547   4464   4465      1
  4548   4464   4499      1
  4549   4465   4466      1
  4550   4465   4500      1
  4551   4466   4471      1
  4552   4466   4474      1
  4553   4466   4476      1
  4554   4467   4468      1
  4555   4467   4471      1
  4556   4467   4475      1
  4557   4468   4469      1
  4558   4469   4470      1
  4559   4469   4472      1
  4560   4470   4471      1
  4561   4470   4501      1
  4562   4471   4502      1
  4563   4472   4480      1
  4564   4472   4503      1
  4565   4473   4491      1
  4566   4473   4504      1
  4567   4473   4505      1
  4568   4474   4492      1
  4569   4474   4506      1
  4570   4474   4507      1
  4571   4475   4483      1
  4572   4475   4508      1
  4573   4477   4478      1
  4574   4478   4479      1
  4575   4478   4509      1
  4576   4479   4480      1
  4577   4479   4510      1
  4578   4480   4481      1
  4579   4482   4483      1
  4580   4482   4486      1
  4581   4483   4484      1
  4582   4484   4485      1
  4583   4484   4511      1
  4584   4485   4486      1
  4585   4485   4512      1
  4586   4486   4498      1
  4587   4487   4488      1
  4588   4487   4491      1
  4589   4488   4489      1
  4590   4488   4497      1
  4591   4489   4490      1
  4592   4489   4513      1
  4593   4490   4491      1
  4594   4490   4514      1
  4595   4492   4493      1
  4596   4492   4496      1
  4597   4493   4494      1
  4598   4493   4515      1
  4599   4494   4495      1
  4600   4494   4516      1
  4601   4495   4496      1
  4602   4495   4536      1
  4603   4495   4567      1
  4604   4497   4518      1
  4605   4498   4519      1
  4606   4498   4520      1
  4607   4521   4522      1
  4608   4521   4528      1
  4609   4521   4531      1
  4610   4521   4534      1
  4611   4522   4523      1
  4612   4522   4557      1
  4613   4523   4524      1
  4614   4523   4558      1
  4615   4524   4529      1
  4616   4524   4532      1
  4617   4524   4534      1
  4618   4525   4526      1
  4619   4525   4529      1
  4620   4525   4533      1
  4621   4526   4527      1
  4622   4527   4528      1
  4623   4527   4530      1
  4624   4528   4529      1
  4625   4528   4559      1
  4626   4529   4560      1
  4627   4530   4538      1
  4628   4530   4561      1
  4629   4531   4549      1
  4630   4531   4562      1
  4631   4531   4563      1
  4632   4532   4550      1
  4633   4532   4564      1
  4634   4532   4565      1
  4635   4533   4541      1
  4636   4535   4536      1
  4637   4535   4539      1
  4638   4536   4537      1
  4639   4537   4538      1
  4640   4537   4568      1
  4641   4538   4539      1
  4642   4540   4541      1
  4643   4540   4544      1
  4644   4541   4542      1
  4645   4542   4543      1
  4646   4543   4544      1
  4647   4544   4556      1
  4648   4545   4546      1
  4649   4545   4549      1
  4650   4546   4547      1
  4651   4546   4555      1
  4652   4547   4548      1
  4653   4547   4571      1
  4654   4548   4549      1
  4655   4548   4572      1
  4656   4550   4551      1
  4657   4550   4554      1
  4658   4551   4552      1
  4659   4551   4573      1
  4660   4552   4553      1
  4661   4552   4574      1
  4662   4555   4575      1
  4663   4555   4576      1
  4664   4556   4577      1
  4665   4556   4578      1
  4666   4579   4580      1
  4667   4579   4586      1
  4668   4579   4589      1
  4669   4579   4592      1
  4670   4580   4581      1
  4671   4580   4615      1
  4672   4581   4582      1
  4673   4581   4616      1
  4674   4582   4587      1
  4675   4582   4590      1
  4676   4583   4584      1
  4677   4583   4587      1
  4678   4583   4591      1
  4679   4584   4585      1
  4680   4585   4586      1
  4681   4585   4588      1
  4682   4586   4587      1
  4683   4586   4617      1
  4684   4587   4618      1
  4685   4588   4596      1
  4686   4588   4619      1
  4687   4589   4607      1
  4688   4589   4620      1
  4689   4589   4621      1
  4690   4590   4608      1
  4691   4590   4623      1
  4692   4591   4599      1
  4693   4591   4624      1
  4694   4592   4693      1
  4695   4593   4594      1
  4696   4593   4597      1
  4697   4593   4614      1
  4698   4594   4595      1
  4699   4594   4625      1
  4700   4595   4596      1
  4701   4595   4626      1
  4702   4596   4597      1
  4703   4598   4599      1
  4704   4598   4622      1
  4705   4599   4600      1
  4706   4600   4601      1
  4707   4600   4627      1
  4708   4601   4602      1
  4709   4601   4628      1
  4710   4603   4607      1
  4711   4605   4606      1
  4712   4606   4607      1
  4713   4606   4630      1
  4714   4608   4609      1
  4715   4608   4672      1
  4716   4609   4631      1
  4717   4609   4672      1
  4718   4610   4611      1
  4719   4610   4651      1
  4720   4610   4672      1
  4721   4611   4612      1
  4722   4611   4613      1
  4723   4612   4613      1
  4724   4613   4633      1
  4725   4613   4634      1
  4726   4614   4635      1
  4727   4614   4636      1
  4728   4632   4650      1
  4729   4637   4638      1
  4730   4637   4644      1
  4731   4637   4647      1
  4732   4637   4650      1
  4733   4638   4639      1
  4734   4638   4673      1
  4735   4639   4640      1
  4736   4639   4674      1
  4737   4640   4645      1
  4738   4640   4648      1
  4739   4641   4642      1
  4740   4641   4645      1
  4741   4641   4649      1
  4742   4642   4643      1
  4743   4643   4644      1
  4744   4643   4646      1
  4745   4644   4645      1
  4746   4644   4675      1
  4747   4645   4676      1
  4748   4646   4654      1
  4749   4646   4677      1
  4750   4647   4665      1
  4751   4647   4678      1
  4752   4647   4679      1
  4753   4648   4666      1
  4754   4648   4680      1
  4755   4648   4681      1
  4756   4649   4657      1
  4757   4649   4682      1
  4758   4651   4652      1
  4759   4651   4655      1
  4760   4652   4653      1
  4761   4652   4683      1
  4762   4653   4654      1
  4763   4653   4684      1
  4764   4654   4655      1
  4765   4656   4657      1
  4766   4657   4658      1
  4767   4658   4659      1
  4768   4658   4685      1
  4769   4659   4660      1
  4770   4659   4686      1
  4771   4662   4663      1
  4772   4663   4664      1
  4773   4663   4687      1
  4774   4666   4667      1
  4775   4666   4670      1
  4776   4667   4668      1
  4777   4667   4689      1
  4778   4668   4669      1
  4779   4669   4670      1
  4780   4669   4671      1
  4781   4671   4692      1
  4782   4695   4696     du
  4783   4696   4697     du
  4784   4697   4698     du
  4785   4698   4695     du
  4786   4699   4700     du
  4787   4700   4701     du
  4788   4701   4702     du
  4789   4702   4699     du
  4790   4698   4702     du
  4791   4699   4695     du
  4792   4697   4701     du
  4793   4700   4696     du
