@<TRIPOS>MOLECULE
LAMMPS data file via write_data, version 29 Oct 2020, timestep = 1000 > lmp2SYBYLmol2 v3.4 / 25 September 2024 w/remove_PBC_bonds=True comments=
  4659 4783    0    0    0
SMALL
NO_CHARGES
****
Energy = 0

@<TRIPOS>ATOM
      1 C           17.5863   -13.4641    -6.8431 C       0      r0     0.1744
      2 C           18.6076   -12.4708    -7.2555 C       0      r0    -0.0106
      3 C          -17.4418   -12.3021    -6.7247 C       0      r0    -0.0288
      4 C          -16.8756   -12.9773    -5.5344 C       0      r0     0.1752
      5 C          -15.3195   -12.8118    -5.3181 C       0      r0    -0.0045
      6 O          -17.4487   -13.6393    -4.7724 O       0      r0    -0.4924
      7 O           16.4406   -13.2295    -6.9575 O       0      r0    -0.5063
      8 C          -14.5570   -14.1148    -5.5435 C       5      r5     0.1355
      9 C          -14.8943   -14.9621    -6.5446 C       5      r5    -0.0267
     10 C          -14.0604   -16.0773    -6.3762 C       5      r5    -0.0247
     11 C          -13.2710   -15.9743    -5.1806 C       5      r5     0.0835
     12 O          -13.5934   -14.4498    -4.6330 O       5      r5    -0.4672
     13 C          -12.5210   -16.7532    -4.6250 C       0      r0    -0.0314
     14 C           17.9242   -14.8143    -6.0969 C       0      r0     0.0309
     15 C           13.9544   -17.1246    -7.6738 C       0      r0     0.1406
     16 C           15.3002   -17.0878    -7.6363 C       0      r0    -0.0168
     17 C           16.0144   -15.8674    -7.1094 C       0      r0    -0.0005
     18 C           17.2619   -15.9351    -6.7744 C       0      r0     0.1511
     19 O           18.0704   -17.0405    -6.8539 O       0      r0    -0.4930
     20 H           18.1590   -11.8972    -8.1026 H       0      r0     0.1047
     21 H          -16.9231   -11.5061    -7.1391 H       0      r0     0.0459
     22 H          -14.9546   -11.9879    -5.8970 H       0      r0     0.0551
     23 H          -15.1549   -12.4647    -4.3120 H       0      r0     0.0806
     24 H          -15.6382   -14.8294    -7.2855 H       0      r0     0.0480
     25 H          -13.9947   -16.9505    -7.0439 H       0      r0     0.0542
     26 H          -12.3814   -17.7485    -5.0580 H       0      r0     0.0829
     27 H          -12.0375   -16.6143    -3.6681 H       0      r0     0.0569
     28 H          -18.2830   -15.1440    -6.0905 H       0      r0     0.1125
     29 H           17.6876   -14.6406    -5.0555 H       0      r0     0.0993
     30 H           15.8505   -17.9746    -7.8221 H       0      r0     0.0786
     31 H           15.4890   -14.9302    -6.9588 H       0      r0     0.1046
     32 C           -4.6696   -18.1949     6.1828 C       0      r0     0.2080
     33 C           -4.9149   -16.7717     6.6427 C       0      r0    -0.0162
     34 C           -6.0614   -16.3956     7.0984 C       0      r0    -0.0397
     35 C           -7.2965   -17.1782     7.0334 C       0      r0     0.1592
     36 C           -8.4099   -16.4565     7.8561 C       0      r0    -0.0122
     37 O           -7.4820   -18.2244     6.5763 O       0      r0    -0.4994
     38 O           -4.0898   -18.5052     5.2249 O       0      r0    -0.4912
     39 C           -8.5329   -14.9866     7.4198 C       5      r5     0.1298
     40 C           -8.1272   -14.7241     6.1227 C       5      r5    -0.0293
     41 C           -8.4110   -13.3874     5.9179 C       5      r5    -0.0172
     42 C           -9.0688   -12.9204     7.1434 C       5      r5     0.0956
     43 O           -9.0369   -14.0308     8.2624 O       5      r5    -0.4724
     44 C           -9.5360   -11.8095     7.3474 C       0      r0    -0.0354
     45 C           -5.1131    18.7735     7.2531 C       0      r0     0.0095
     46 C           -0.7100    17.6911     7.5623 C       0      r0     0.1407
     47 C           -1.7997    17.0350     7.9172 C       0      r0     0.0062
     48 C           -3.2170    17.4366     7.4311 C       0      r0    -0.0028
     49 C           -3.8438    18.3468     7.9551 C       0      r0     0.1270
     50 O           -3.3795   -18.8647     9.0868 O       0      r0    -0.4899
     51 H           -4.1885   -16.0426     6.8678 H       0      r0     0.0517
     52 H           -6.1622   -15.4127     7.5196 H       0      r0     0.0406
     53 H           -9.3488   -16.9779     7.8047 H       0      r0     0.0703
     54 H           -8.0343   -16.6112     8.8475 H       0      r0     0.0569
     55 H           -7.7431   -15.4438     5.4062 H       0      r0     0.0440
     56 H           -8.1978   -12.8283     5.0673 H       0      r0     0.0886
     57 H           -9.5903   -11.0247     6.5761 H       0      r0     0.0659
     58 H           -9.9680   -11.6349     8.3003 H       0      r0     0.0590
     59 H           -5.8283   -18.8384     7.9734 H       0      r0     0.0825
     60 H           -5.7121    17.9603     6.7947 H       0      r0     0.0698
     61 H           -1.6907    16.1292     8.4696 H       0      r0     0.0827
     62 H           -3.6665    16.9812     6.5770 H       0      r0     0.0596
     63 C          -10.2240    -5.8864    -1.2657 C       5      r5     0.1419
     64 O          -11.3382    -5.6230    -1.9990 O       5      r5    -0.5054
     65 C          -11.5003    -4.1529    -1.5038 C       5      r5     0.1107
     66 C          -10.6097    -3.7453    -0.5212 C       5      r5    -0.0247
     67 C           -9.8684    -4.9248    -0.2933 C       5      r5    -0.0062
     68 C           -9.4441    -7.0582    -1.4718 C       0      r0     0.0011
     69 C          -12.6185    -1.9472    -2.0019 C       5      r5     0.1784
     70 O          -13.6221    -1.3407    -2.6021 O       5      r5    -0.4704
     71 C          -13.1734     0.2889    -2.1214 C       5      r5     0.1891
     72 C          -11.9709     0.1925    -1.2756 C       5      r5    -0.0047
     73 C          -11.6631    -1.0906    -1.2874 C       5      r5    -0.0097
     74 C          -12.4135    -3.3405    -2.1732 C       0      r0     0.0497
     75 C           -8.2779    -7.3779    -0.7492 C       5      r5     0.1243
     76 C           -7.6048    -8.5915    -1.1745 C       5      r5    -0.0183
     77 C           -6.4646    -8.8437    -0.3735 C       5      r5    -0.0163
     78 C           -6.5288    -7.7078     0.4567 C       5      r5     0.0850
     79 O           -7.7556    -6.6391     0.2922 O       5      r5    -0.4898
     80 C           -5.6366    -7.7792     1.3496 C       0      r0    -0.0345
     81 H          -10.5694    -2.8202    -0.0554 H       0      r0     0.0529
     82 H           -9.1598    -5.0620     0.5033 H       0      r0     0.1249
     83 H           -9.5587    -7.7876    -2.2521 H       0      r0     0.0574
     84 H          -11.3914     0.9445    -0.7632 H       0      r0     0.0946
     85 H          -10.8365    -1.5119    -0.8280 H       0      r0     0.0438
     86 H          -13.0500    -3.7912    -2.9514 H       0      r0     0.1164
     87 H           -7.9209    -9.2187    -1.9685 H       0      r0     0.1048
     88 H           -5.6902    -9.6255    -0.3799 H       0      r0     0.1247
     89 H           -4.9180    -8.6269     1.5117 H       0      r0     0.1168
     90 H           -5.4607    -6.9986     2.0401 H       0      r0     0.0595
     91 C           16.2286    -1.9384    -8.7728 C       5      r5     0.1438
     92 O           17.0504    -0.8809    -9.2611 O       5      r5    -0.5066
     93 C           18.1604    -1.1174    -8.1536 C       5      r5     0.1064
     94 C           17.8984    -2.1035    -7.2001 C       5      r5    -0.0303
     95 C           16.6864    -2.6450    -7.6266 C       5      r5     0.0075
     96 C           15.0537    -2.3063    -9.4318 C       0      r0     0.0142
     97 C          -16.7477    -0.4448    -7.2655 C       5      r5     0.1281
     98 O          -15.8909     0.6927    -7.1659 O       5      r5    -0.4872
     99 C          -15.0589     0.0749    -5.9502 C       5      r5     0.0952
    100 C          -15.4183    -1.2908    -5.7484 C       5      r5    -0.0092
    101 C          -16.5494    -1.6083    -6.5329 C       5      r5    -0.0118
    102 C          -17.8996    -0.3577    -8.1079 C       0      r0     0.0244
    103 C           14.1853    -3.3360    -8.9630 C       5      r5     0.1430
    104 C           13.0831    -3.7663    -9.8318 C       5      r5    -0.0259
    105 C           12.3570    -4.8050    -9.2453 C       5      r5    -0.0303
    106 C           13.0384    -4.8709    -7.9967 C       5      r5     0.1032
    107 O           14.3213    -4.0038    -7.7738 O       5      r5    -0.4646
    108 C           12.4573    -5.7728    -7.3030 C       0      r0    -0.0303
    109 H           18.4904    -2.4077    -6.3463 H       0      r0     0.0577
    110 H           16.1931    -3.4284    -7.0795 H       0      r0     0.1047
    111 H           14.8169    -1.9745   -10.4305 H       0      r0     0.0502
    112 H          -15.0035    -1.9231    -4.9506 H       0      r0     0.0963
    113 H          -17.0904    -2.4871    -6.5598 H       0      r0     0.0769
    114 H          -18.0680     0.3383    -8.9475 H       0      r0     0.1090
    115 H           12.8513    -3.4450   -10.8334 H       0      r0     0.0537
    116 H           11.4777    -5.2938    -9.6573 H       0      r0     0.1069
    117 H           11.6307    -6.3852    -7.6044 H       0      r0     0.0559
    118 H           12.8357    -5.9928    -6.3193 H       0      r0     0.0783
    119 C           15.1541   -13.5795    13.3279 C       0      r0    -0.0079
    120 O           15.6317   -11.7001    10.9838 O       0      r0    -0.4622
    121 C           15.1760   -10.7756    11.9328 C       0      r0     0.1465
    122 C           14.7472   -11.0043    13.1921 C       0      r0    -0.0293
    123 C           14.7872   -12.3080    13.8494 C       0      r0    -0.0349
    124 C           15.5394   -14.6946    12.8014 C       0      r0    -0.0321
    125 C           14.8532    -9.4248    11.6731 C       0      r0    -0.0151
    126 H           14.4426   -10.1360    13.7581 H       0      r0     0.0476
    127 H           14.2803   -12.3582    14.8084 H       0      r0     0.0658
    128 H           15.8068   -15.6342    12.3096 H       0      r0     0.0777
    129 H           14.4840    -8.7031    12.3880 H       0      r0     0.0496
    130 C          -17.9372    -8.6852    10.1267 C       5      r5     0.1704
    131 O          -16.6498    -9.2932    10.2580 O       5      r5    -0.4132
    132 C          -16.2380    -8.4002    11.3880 C       5      r5     0.1610
    133 C          -17.1550    -7.4130    11.8638 C       5      r5    -0.0444
    134 C          -18.2565    -7.5493    10.9506 C       5      r5    -0.0434
    135 C           18.2519    -8.8622     9.3595 C       0      r0     0.1574
    136 C          -15.1451    -8.2761    12.0849 C       0      r0     0.1586
    137 H          -16.9303    -6.6473    12.5310 H       0      r0     0.0438
    138 H           18.1853    -6.8788    10.9233 H       0      r0     0.0359
    139 H           17.4790    -8.1327     9.2762 H       0      r0     0.0664
    140 H          -14.9740    -7.5634    12.9053 H       0      r0     0.0676
    141 C          -13.7389   -11.3117    18.9141 C       0      r0     0.0977
    142 O          -13.3284   -10.5672    17.4671 O       0      r0    -0.4629
    143 C          -12.4177   -12.0428    17.1554 C       0      r0     0.0727
    144 C          -12.3636   -13.0833    18.2004 C       0      r0    -0.0130
    145 C          -13.3533   -12.7150   -18.7995 C       0      r0    -0.0150
    146 C          -14.5013   -10.8134   -18.1043 C       0      r0    -0.0102
    147 C          -11.7716   -12.3451    16.1363 C       0      r0    -0.0404
    148 H          -11.9211   -14.0643    18.1175 H       0      r0     0.1425
    149 H          -13.7060   -13.2597   -17.9377 H       0      r0     0.1014
    150 H          -15.1120   -10.5408   -17.2513 H       0      r0     0.0832
    151 H          -11.2103   -12.7586    15.3429 H       0      r0     0.0429
    152 C          -12.7908    -1.9864   -16.1356 C       5      r5     0.0704
    153 C          -13.6173    -3.2439   -16.0420 C       5      r5    -0.0298
    154 C          -12.8607    -3.8999   -15.2403 C       5      r5    -0.0172
    155 C          -11.5949    -3.1499   -14.8416 C       5      r5     0.1587
    156 C           -9.5120    -2.2025   -16.1733 C       5      r5     0.1757
    157 O           -9.7013    -0.9685   -16.7648 O       5      r5    -0.4731
    158 C          -10.8499    -1.0609   -17.5180 C       5      r5     0.1500
    159 C          -11.6334    -2.2768   -17.0780 C       5      r5     0.0013
    160 C          -10.7199    -3.0927   -16.2189 C       5      r5     0.0314
    161 C          -11.2647    -0.2775   -18.5430 C       0      r0     0.0043
    162 C          -13.6979    -0.8698   -16.7895 C       0      r0    -0.0074
    163 C          -11.0905    -4.1535   -13.6062 C       0      r0     0.0075
    164 C           -8.2887    -2.6099   -15.6174 C       0      r0     0.0093
    165 O          -11.9091    -1.8876   -14.6213 O       5      r5    -0.4409
    166 C          -14.7433    -1.3742    16.8241 C       0      r0     0.0099
    167 C          -13.7382    -2.1970    17.2997 C       0      r0    -0.0346
    168 C          -12.6203    -1.8404    18.1197 C       0      r0    -0.0253
    169 C          -12.2977    -0.5809    18.4901 C       0      r0     0.1133
    170 O          -12.9695     0.4877    17.8048 O       0      r0    -0.4743
    171 O           -9.0875    -5.0134   -15.1628 O       5      r5    -0.4961
    172 C           -8.0687    -3.8632   -15.1250 C       5      r5     0.1080
    173 C           -6.7337    -4.1595   -14.6524 C       5      r5    -0.0355
    174 C           -6.7905    -5.4309   -14.3090 C       5      r5    -0.0222
    175 C           -8.1255    -5.9954   -14.6134 C       5      r5     0.1083
    176 O          -15.8635     0.2053   -16.1892 O       5      r5    -0.4639
    177 C          -16.6537     0.1695   -14.8930 C       5      r5     0.1053
    178 C          -15.9173    -0.5840   -13.8925 C       5      r5    -0.0246
    179 C          -14.7411    -1.0665   -14.4826 C       5      r5     0.0013
    180 C          -14.7634    -0.5266   -15.7594 C       5      r5     0.1528
    181 C          -12.1526    -4.1749   -12.4968 C       5      r5     0.1449
    182 C          -12.7841    -5.4046   -12.2939 C       5      r5    -0.0434
    183 C          -13.7412    -5.1838   -11.4001 C       5      r5    -0.0502
    184 C          -13.6337    -3.7348   -10.9490 C       5      r5     0.0769
    185 O          -12.3886    -3.0738   -11.7534 O       5      r5    -0.4446
    186 C          -17.8207     0.7312   -14.6938 C       0      r0    -0.0404
    187 C           -8.3828    -7.2391   -14.3612 C       0      r0    -0.0367
    188 H          -14.5325    -3.5516   -16.5377 H       0      r0     0.0832
    189 H          -13.0865    -4.9093   -14.9562 H       0      r0     0.0481
    190 H          -12.0470    -2.9328   -17.7935 H       0      r0     0.0256
    191 H          -10.4126    -4.0906   -16.5017 H       0      r0     0.0802
    192 H          -10.8110     0.6946   -18.8195 H       0      r0     0.0707
    193 H          -13.1040    -0.0979   -17.3069 H       0      r0     0.0806
    194 H          -14.1535    -1.0966   -17.8298 H       0      r0     0.0604
    195 H          -10.8861    -5.1325   -13.9751 H       0      r0     0.0614
    196 H          -10.1501    -3.8008   -13.2537 H       0      r0     0.1350
    197 H           -7.4798    -1.8799   -15.5235 H       0      r0     0.0534
    198 H          -14.1115    -3.2179    16.9332 H       0      r0     0.0465
    199 H          -12.0516    -2.7105    18.4413 H       0      r0     0.0636
    200 H           -5.9015    -3.4959   -14.5585 H       0      r0     0.0367
    201 H           -5.9859    -5.9963   -13.8631 H       0      r0     0.0902
    202 H          -16.1600    -0.6905   -12.8873 H       0      r0     0.0721
    203 H          -14.0459    -1.7421   -14.0396 H       0      r0     0.1118
    204 H          -12.5646    -6.3214   -12.7429 H       0      r0     0.0353
    205 H          -14.3900    -5.8906   -10.9760 H       0      r0     0.0347
    206 H          -18.3890     0.6070   -13.7429 H       0      r0     0.0432
    207 H          -18.2367     1.3242   -15.5140 H       0      r0     0.0630
    208 H           -7.7216    -7.9562   -13.9529 H       0      r0     0.0569
    209 H           -9.3701    -7.5762   -14.5925 H       0      r0     0.0621
    210 C          -18.1628    -5.3904   -13.3663 C       5      r5     0.0891
    211 C          -17.6450    -6.6737   -13.8534 C       5      r5    -0.0162
    212 C           18.4537    -7.2291   -14.1586 C       5      r5    -0.0129
    213 C           17.2382    -6.3374   -13.7468 C       5      r5     0.1286
    214 C           16.2342    -5.8171   -11.4381 C       5      r5     0.1439
    215 O           16.5526    -4.5337   -11.0020 O       5      r5    -0.4896
    216 C           17.9090    -4.3991   -11.1813 C       5      r5     0.1410
    217 C          -18.6016    -5.5479   -11.8813 C       5      r5    -0.0137
    218 C           17.3568    -6.4893   -12.1853 C       5      r5     0.0295
    219 C           18.4643    -3.1948   -10.7948 C       0      r0     0.0218
    220 C          -17.0379    -4.3139   -13.5176 C       0      r0    -0.0211
    221 C           15.8805    -6.8741   -14.3611 C       0      r0    -0.0073
    222 C           15.1770    -6.5857   -11.0463 C       0      r0    -0.0107
    223 O           17.5888    -5.0028   -13.9365 O       5      r5    -0.4688
    224 C          -15.4553    -1.7994   -10.6756 C       5      r5     0.1228
    225 C          -15.0637    -3.1646   -10.8244 C       5      r5    -0.0089
    226 C          -16.3650    -3.8030   -10.9255 C       5      r5    -0.0460
    227 C          -17.3837    -2.8856   -10.7788 C       5      r5     0.1167
    228 O          -17.0221    -1.5537   -10.5542 O       5      r5    -0.4600
    229 O           15.8291    -8.6733   -12.2058 O       5      r5    -0.4852
    230 C           14.8957    -7.9126   -11.4339 C       5      r5     0.1027
    231 C           13.6879    -8.5636   -11.0671 C       5      r5    -0.0449
    232 C           13.6469    -9.8804   -11.5479 C       5      r5    -0.0509
    233 C           14.9339    -9.9530   -12.1698 C       5      r5     0.0946
    234 O          -16.2483    -4.8271   -15.8068 O       5      r5    -0.4681
    235 C          -16.4707    -3.9785   -17.1275 C       5      r5     0.0801
    236 C          -17.3288    -2.7963   -16.8367 C       5      r5    -0.0210
    237 C          -17.5314    -2.7727   -15.5117 C       5      r5    -0.0135
    238 C          -16.9088    -3.9485   -15.0225 C       5      r5     0.1528
    239 C           14.9101    -5.7779   -14.8032 C       0      r0     0.1618
    240 C           14.9050    -4.6335   -14.0182 C       0      r0     0.0062
    241 C           14.2037    -3.4327   -14.2734 C       0      r0    -0.0243
    242 C           13.4011    -3.2018   -15.3756 C       0      r0     0.1439
    243 O           14.1314    -5.8414   -15.7957 O       0      r0    -0.4512
    244 C          -16.0872    -4.3587   -18.2165 C       0      r0    -0.0380
    245 C           15.0693   -11.1675   -12.6289 C       0      r0    -0.0515
    246 H          -16.6557    -7.0624   -14.0017 H       0      r0     0.0815
    247 H           18.3033    -8.2096   -14.5359 H       0      r0     0.0581
    248 H          -17.8554    -5.8449   -11.1487 H       0      r0     0.0217
    249 H           17.4790    -7.5119   -11.9117 H       0      r0     0.1018
    250 H           17.8401    -2.4424   -10.4223 H       0      r0     0.1379
    251 H          -17.2983    -3.4641   -12.9338 H       0      r0     0.0490
    252 H          -16.0350    -4.6070   -13.1109 H       0      r0     0.0484
    253 H           15.9521    -7.4909   -15.2777 H       0      r0     0.0836
    254 H           15.3968    -7.5894   -13.6145 H       0      r0     0.1056
    255 H           14.5198    -5.8829   -10.5502 H       0      r0     0.0651
    256 H          -13.3690    -3.7584    -9.9148 H       0      r0     0.0930
    257 H          -16.5917    -4.8526   -10.9773 H       0      r0     0.0191
    258 H           12.8872    -8.1446   -10.5180 H       0      r0     0.0351
    259 H           12.9067   -10.6259   -11.3406 H       0      r0     0.0421
    260 H          -17.6410    -2.0433   -17.5411 H       0      r0     0.0974
    261 H          -18.0766    -2.0185   -14.9627 H       0      r0     0.0510
    262 H           15.4763    -4.5530   -13.1038 H       0      r0     0.1074
    263 H           14.2359    -2.5987   -13.5527 H       0      r0     0.0454
    264 H          -16.3516    -3.8520    18.7867 H       0      r0     0.0424
    265 H          -15.4819    -5.2843   -18.3205 H       0      r0     0.1368
    266 H           14.3237   -11.9197   -12.4558 H       0      r0     0.0379
    267 H           15.9979   -11.4542   -13.1240 H       0      r0     0.0653
    268 C          -10.9305     2.1244   -12.1135 C       6      r6    -0.0206
    269 C          -11.2975     1.9136   -10.7890 C       6      r6    -0.0403
    270 C          -11.0408     0.7280   -10.0668 C       6      r6    -0.0379
    271 C          -10.5944    -0.3679   -10.8169 C       6      r6    -0.0010
    272 C           -8.6118    -0.1709   -12.5638 C       5      r5     0.1575
    273 O           -8.3316     1.1445   -12.9877 O       5      r5    -0.4955
    274 C           -9.5452     1.4937   -13.6673 C       5      r5     0.1501
    275 C          -10.7062     0.9569   -12.9822 C       5      r5     0.0206
    276 C          -10.1444    -0.3711   -12.2422 C       5      r5     0.0269
    277 C           -9.7105     2.0009   -14.9838 C       0      r0     0.0144
    278 C          -10.9785     3.6169   -12.6176 C       0      r0    -0.0257
    279 C          -10.6853    -1.4462    -9.9614 C       0      r0     0.0173
    280 C           -7.5948    -0.9624   -12.4583 C       0      r0     0.0283
    281 O           -8.4413    -3.1963    -8.5408 O       0      r0    -0.5605
    282 C          -12.9457     2.7592   -16.2674 C       5      r5     0.1085
    283 C          -11.9765     2.9534   -17.3004 C       5      r5    -0.0260
    284 C          -10.6755     2.6167   -16.8550 C       5      r5    -0.0363
    285 C          -10.9987     2.2625   -15.5148 C       5      r5     0.1431
    286 O          -12.2613     2.2492   -14.9596 O       5      r5    -0.4769
    287 O           -8.8630    -2.9036   -11.8158 O       0      r0    -0.5788
    288 C           -7.6431    -2.3358   -12.0423 C       0      r0     0.1447
    289 C           -6.4632    -3.0038   -11.8843 C       0      r0    -0.0231
    290 C           -6.2693    -4.2985   -11.3130 C       0      r0    -0.0362
    291 C           -7.3183    -5.2259   -11.0693 C       0      r0    -0.0128
    292 O           -9.6304     5.6942   -12.9780 O       5      r5    -0.4488
    293 C           -8.0787     5.9499   -12.1852 C       5      r5     0.0899
    294 C           -7.7529     4.9596   -11.2767 C       5      r5    -0.0199
    295 C           -8.8573     4.0293   -11.4566 C       5      r5     0.0104
    296 C           -9.7444     4.4943   -12.3688 C       5      r5     0.1434
    297 C          -11.3629    -1.5699    -8.6923 C       3      r3    -0.0057
    298 C          -12.3583    -1.0686    -7.9343 C       3      r3    -0.0524
    299 C          -11.9121    -2.5059    -6.3941 C       0      r0     0.0250
    300 C          -11.4014    -1.4459    -5.3762 C       0      r0     0.1133
    301 O          -10.2385    -1.8940    -4.4878 O       0      r0    -0.4955
    302 C          -11.8808    -0.3432    -5.2428 C       0      r0    -0.0191
    303 C          -14.1474     3.0107   -16.3985 C       0      r0    -0.0079
    304 H          -11.7132     2.7885   -10.2585 H       0      r0     0.0901
    305 H          -11.3146     0.6201    -9.0250 H       0      r0     0.0509
    306 H          -11.5751     0.7229   -13.5854 H       0      r0     0.1336
    307 H          -10.4068    -1.3070   -12.6833 H       0      r0     0.1427
    308 H           -8.8926     2.2152   -15.5974 H       0      r0     0.0614
    309 H          -11.3313     3.6267   -13.6653 H       0      r0     0.1014
    310 H          -11.7998     4.2615   -12.2488 H       0      r0     0.0644
    311 H           -8.5546    -3.7586   -11.2995 H       0      r0     0.2590
    312 H          -10.3479    -2.3472   -10.4660 H       0      r0     0.1613
    313 H           -6.6295    -0.5294   -12.6965 H       0      r0     0.0584
    314 H          -12.2841     3.3194   -18.2590 H       0      r0     0.0519
    315 H           -9.7070     2.5395   -17.3566 H       0      r0     0.0408
    316 H           -5.5657    -2.4885   -12.1672 H       0      r0     0.0411
    317 H           -5.3050    -4.7378   -11.1503 H       0      r0     0.0613
    318 H           -7.0960     4.9034   -10.4249 H       0      r0     0.0614
    319 H           -8.9330     3.1326   -10.8731 H       0      r0     0.1024
    320 H          -13.0729    -0.2495    -7.9028 H       0      r0     0.0550
    321 H          -15.7140    -8.3060    -6.2169 H       0      r0     0.3159
    322 H          -12.6280     0.0317    -5.9613 H       0      r0     0.0309
    323 H          -11.5994     0.3737    -4.4732 H       0      r0     0.0824
    324 H          -14.6311     3.4058   -17.2644 H       0      r0     0.1208
    325 H          -14.7783     2.7335   -15.5288 H       0      r0     0.0856
    326 C          -15.6857    -6.9434    -7.5847 C       6      r6     0.1187
    327 C          -16.2656    -6.7953    -8.9683 C       6      r6    -0.0508
    328 C          -16.1648    -7.6294   -10.0039 C       6      r6    -0.0627
    329 C          -15.5768    -8.8098    -9.4573 C       6      r6    -0.0243
    330 C          -13.8373    -9.8760    -7.9842 C       5      r5     0.1505
    331 O          -13.8372    -9.5076    -6.6929 O       5      r5    -0.4949
    332 C          -13.5762    -8.0893    -6.7006 C       5      r5     0.1363
    333 C          -14.1541    -7.4366    -7.9027 C       5      r5    -0.0063
    334 C          -14.2336    -8.7818    -8.8585 C       5      r5    -0.0029
    335 C          -12.7802    -7.4537    -5.7901 C       0      r0    -0.0038
    336 C          -15.5790    -5.4805    -6.9802 C       0      r0     0.0124
    337 C          -16.2480   -10.1238    -9.8273 C       0      r0    -0.0190
    338 C          -13.3144   -11.1057    -8.4859 C       0      r0     0.0010
    339 O          -16.3669    -7.7113    -6.6518 O       0      r0    -0.5799
    340 C          -12.0690    -3.8978    -6.1220 C       5      r5     0.1397
    341 C          -11.7241    -4.3379    -4.8137 C       5      r5     0.0041
    342 C          -11.9749    -5.7572    -4.6780 C       5      r5    -0.0119
    343 C          -12.5046    -6.0157    -5.9280 C       5      r5     0.1332
    344 O          -12.6565    -5.0855    -6.9424 O       5      r5    -0.4774
    345 O          -13.6412   -10.8713   -10.9625 O       5      r5    -0.4643
    346 C          -13.1953   -11.5225    -9.8053 C       5      r5     0.1284
    347 C          -12.5284   -12.7897    -9.9441 C       5      r5    -0.0040
    348 C          -12.4103   -13.0946   -11.3113 C       5      r5    -0.0259
    349 C          -13.1020   -12.0289   -11.9530 C       5      r5     0.0944
    350 O          -16.3294    -4.2811    -5.2178 O       0      r0    -0.4644
    351 C           18.1034    -4.2379    -4.5293 C       0      r0     0.1533
    352 C           18.0753    -5.1539    -5.5888 C       0      r0    -0.0379
    353 C          -18.0820    -5.4152    -6.4013 C       0      r0    -0.0095
    354 C          -16.7183    -4.9834    -6.0742 C       0      r0     0.1932
    355 C          -17.7553   -10.1635    -9.4363 C       5      r5     0.1371
    356 C          -18.2042    -9.2055    -8.5696 C       5      r5    -0.0171
    357 C           17.6429    -9.3465    -8.5673 C       5      r5    -0.0265
    358 C           17.2212   -10.3883    -9.4578 C       5      r5     0.0879
    359 O          -18.5544   -11.0482   -10.0036 O       5      r5    -0.4826
    360 C           16.1632   -10.8157    -9.8610 C       0      r0    -0.0239
    361 C          -12.1717    -2.4950    -7.7710 C       3      r3     0.0227
    362 H          -16.8212    -5.8820    -9.1382 H       0      r0     0.0299
    363 H          -16.6067    -7.4613   -10.9105 H       0      r0     0.0450
    364 H          -13.5536    -6.6305    -8.4116 H       0      r0     0.0693
    365 H          -13.4414    -8.7188    -9.7167 H       0      r0     0.0732
    366 H          -12.4606    -8.0795    -4.9631 H       0      r0     0.0611
    367 H          -14.6710    -5.2450    -6.4718 H       0      r0     0.1330
    368 H          -15.5117    -4.7092    -7.7290 H       0      r0     0.0419
    369 H          -16.1746   -10.3129   -10.9301 H       0      r0     0.0883
    370 H          -15.6812   -10.9463    -9.4427 H       0      r0     0.0710
    371 H          -12.8529   -11.7481    -7.7548 H       0      r0     0.0651
    372 H          -11.2287    -3.7174    -4.0601 H       0      r0     0.1043
    373 H          -11.8376    -6.3469    -3.7962 H       0      r0     0.1025
    374 H          -12.3186   -13.5076    -9.1606 H       0      r0     0.0938
    375 H          -12.1715   -13.9829   -11.7881 H       0      r0     0.0451
    376 H           17.1787    -5.5219    -5.9295 H       0      r0     0.0410
    377 H          -18.2611    -6.0091    -7.2930 H       0      r0     0.0583
    378 H          -17.5693    -8.5184    -8.0721 H       0      r0     0.1067
    379 H           16.9768    -8.7745    -7.9560 H       0      r0     0.0477
    380 H           15.1920   -10.4821    -9.4801 H       0      r0     0.0451
    381 H           16.1825   -11.5578   -10.6274 H       0      r0     0.0655
    382 H           -7.9338    -3.1240    -9.4029 H       0      r0     0.3074
    383 H           -8.9169     0.0389    -3.8299 H       0      r0     0.2919
    384 C           13.2261    17.1948    -8.5039 C       0      r0     0.2029
    385 C           14.6127    17.4721    -8.8245 C       0      r0     0.0157
    386 C           14.9874    18.2170    -9.9177 C       0      r0    -0.0076
    387 C           14.1535    18.2540   -11.0578 C       0      r0     0.1700
    388 C           14.4889   -18.7711   -12.1393 C       0      r0    -0.0009
    389 O           13.1017    17.5752   -11.1580 O       0      r0    -0.4960
    390 O           12.8245    16.3727    -7.7785 O       0      r0    -0.4612
    391 C           14.0516   -17.3854   -11.6945 C       5      r5     0.1309
    392 C           12.6961   -17.2356   -11.5803 C       5      r5    -0.0142
    393 C           12.5104   -16.0661   -10.8615 C       5      r5    -0.0042
    394 C           13.8377   -15.4954   -10.5789 C       5      r5     0.1062
    395 O           14.9253   -16.3768   -11.3198 O       5      r5    -0.5042
    396 C           13.9165   -14.3595    -9.8873 C       0      r0    -0.0447
    397 C           12.2493    18.3382    -8.9329 C       0      r0     0.0262
    398 C           11.6692   -17.4883    -4.9789 C       0      r0    -0.0015
    399 C           11.2674   -18.7557    -5.3881 C       0      r0    -0.0278
    400 C           11.5259    18.6088    -6.6210 C       0      r0     0.0084
    401 C           12.1220   -18.7921    -7.6687 C       0      r0     0.1684
    402 O           12.5862   -17.5869    -7.8350 O       0      r0    -0.4794
    403 H           15.3125    17.2597    -8.0554 H       0      r0     0.1206
    404 H           16.0247    18.5788   -10.0096 H       0      r0     0.1038
    405 H           15.5763   -18.8497   -12.3170 H       0      r0     0.0738
    406 H           14.0701   -18.9883   -13.1452 H       0      r0     0.0747
    407 H           11.9663   -17.9973   -11.7798 H       0      r0     0.0558
    408 H           11.5370   -15.7128   -10.5332 H       0      r0     0.1076
    409 H           12.9264   -14.0301    -9.5669 H       0      r0     0.0649
    410 H           14.8038   -13.8420    -9.6446 H       0      r0     0.0585
    411 H           12.5591   -18.9851    -9.6887 H       0      r0     0.1025
    412 H           11.2857    17.9780    -9.4514 H       0      r0     0.0654
    413 H           10.6046    18.9003    -4.6112 H       0      r0     0.0593
    414 H           11.1705    17.6147    -6.7906 H       0      r0     0.0922
    415 C            0.1871   -18.1674     6.4656 C       0      r0     0.1572
    416 C           -0.9808   -17.5919     6.0949 C       0      r0    -0.0076
    417 C           -1.2944   -16.2148     5.7490 C       0      r0    -0.0380
    418 C           -0.7366   -15.1345     6.2735 C       0      r0     0.1249
    419 C           -1.4328   -13.9001     5.8394 C       0      r0    -0.0126
    420 O            0.2958   -15.0317     7.1864 O       0      r0    -0.5130
    421 O            0.2875    18.6073     6.9517 O       0      r0    -0.4975
    422 C           -2.8041   -13.6088     6.4701 C       5      r5     0.1350
    423 C           -3.0420   -14.1800     7.7061 C       5      r5    -0.0313
    424 C           -4.3311   -13.7887     7.9991 C       5      r5    -0.0347
    425 C           -4.9921   -13.0226     6.9680 C       5      r5     0.0721
    426 O           -3.7546   -12.8500     5.8812 O       5      r5    -0.4881
    427 C           -6.1103   -12.5721     7.0452 C       0      r0    -0.0384
    428 C            1.4716   -17.4975     6.4934 C       0      r0     0.0244
    429 C            5.6472    18.2298     6.4529 C       0      r0     0.2732
    430 C            4.6605    18.7861     7.5263 C       0      r0     0.0237
    431 C            3.4539   -18.6648     7.3774 C       0      r0     0.0014
    432 C            2.7163   -18.3710     6.1202 C       0      r0     0.2045
    433 O            2.9382   -18.5320     4.9879 O       0      r0    -0.4626
    434 H           -1.7629   -18.3048     6.1457 H       0      r0     0.1011
    435 H           -2.1693   -15.9363     5.1141 H       0      r0     0.0375
    436 H           -0.7370   -13.0482     5.7956 H       0      r0     0.0957
    437 H           -1.5690   -13.9318     4.7560 H       0      r0     0.0410
    438 H           -2.2971   -14.7010     8.2401 H       0      r0     0.0522
    439 H           -4.8109   -13.9805     8.9506 H       0      r0     0.0436
    440 H           -6.6511   -12.7730     7.9731 H       0      r0     0.0610
    441 H           -6.6193   -11.9578     6.2334 H       0      r0     0.1081
    442 H            1.5080   -16.5663     5.9317 H       0      r0     0.0696
    443 H            1.4919   -17.0769     7.5494 H       0      r0     0.1236
    444 H            5.2417    18.6465     8.4651 H       0      r0     0.0809
    445 H            2.9059   -18.2237     8.1338 H       0      r0     0.0859
    446 C           -3.9183    18.4708    -8.0075 C       5      r5     0.1274
    447 O           -3.0623    18.3951    -6.7163 O       5      r5    -0.4795
    448 C           -1.9998   -18.8756    -7.2243 C       5      r5     0.1481
    449 C           -2.2505   -18.2272    -8.4880 C       5      r5    -0.0271
    450 C           -3.4548   -18.7198    -9.0213 C       5      r5    -0.0045
    451 C           -5.1452    17.7843    -8.0848 C       0      r0    -0.0021
    452 C            0.2704   -17.8696    -7.0636 C       5      r5     0.1059
    453 O            1.3360   -17.4311    -6.1784 O       5      r5    -0.4936
    454 C            2.1747   -16.7834    -7.1282 C       5      r5     0.1214
    455 C            1.6845   -16.9533    -8.4463 C       5      r5    -0.0093
    456 C            0.5192   -17.7296    -8.4337 C       5      r5    -0.0449
    457 C           -0.8338   -18.5970    -6.5190 C       0      r0     0.0182
    458 C           -6.0191    17.9750    -9.1495 C       5      r5     0.1254
    459 C           -7.3398    17.4253    -8.9761 C       5      r5    -0.0163
    460 C           -8.1245    17.6165   -10.1579 C       5      r5    -0.0383
    461 C           -7.1773    18.2864   -10.9403 C       5      r5     0.0855
    462 O           -5.7206    18.6776   -10.2938 O       5      r5    -0.4772
    463 C           -7.6767    18.5365   -12.1031 C       0      r0    -0.0436
    464 H           -1.7479   -17.3740    -8.9215 H       0      r0     0.0263
    465 H           -4.0031   -18.4259    -9.9529 H       0      r0     0.1043
    466 H           -5.4600    17.1825    -7.2677 H       0      r0     0.0468
    467 H            2.1681   -16.5776    -9.3586 H       0      r0     0.1080
    468 H           -0.1174   -18.0208    -9.2643 H       0      r0     0.0346
    469 H           -0.7605   -18.8957    -5.4526 H       0      r0     0.1039
    470 H           -7.6950    16.9565    -8.0997 H       0      r0     0.0909
    471 H           -9.1620    17.2668   -10.3437 H       0      r0     0.0545
    472 H           -8.6358    18.2180   -12.4697 H       0      r0     0.0447
    473 H           -7.0201   -18.9219   -12.8187 H       0      r0     0.0726
    474 C            2.0271   -10.7052   -12.5336 C       5      r5     0.1422
    475 O            3.0890    -9.9231   -12.9917 O       5      r5    -0.5015
    476 C            4.1606   -10.5559   -12.0248 C       5      r5     0.1064
    477 C            3.7131   -11.6451   -11.2989 C       5      r5    -0.0178
    478 C            2.3859   -11.7361   -11.5502 C       5      r5     0.0117
    479 C            0.7789   -10.6190   -13.1553 C       0      r0     0.0033
    480 C            6.4001   -10.4255   -10.9938 C       5      r5     0.1360
    481 O            7.7672   -10.4048   -11.1872 O       5      r5    -0.4258
    482 C            8.0897   -10.8377    -9.6021 C       5      r5     0.0995
    483 C            6.9514   -11.0555    -8.8262 C       5      r5    -0.0381
    484 C            5.9065   -10.7491    -9.7477 C       5      r5    -0.0174
    485 C            5.4854   -10.0871   -12.0652 C       0      r0     0.0175
    486 C           -0.3258   -11.3894   -12.7480 C       5      r5     0.1272
    487 C           -1.4765   -11.1343   -13.4602 C       5      r5     0.0023
    488 C           -2.4727   -11.8095   -12.7684 C       5      r5     0.0118
    489 C           -1.9936   -12.5085   -11.5885 C       5      r5     0.0865
    490 O           -0.3459   -12.3411   -11.5688 O       5      r5    -0.4663
    491 C           -2.6392   -13.0934   -10.7448 C       0      r0    -0.0614
    492 H            4.3050   -12.3461   -10.6212 H       0      r0     0.0524
    493 H            1.7898   -12.5225   -11.1658 H       0      r0     0.1038
    494 H            0.6988    -9.8595   -13.9091 H       0      r0     0.0562
    495 H            6.7979   -11.3191    -7.8044 H       0      r0     0.0350
    496 H            4.8506   -10.8297    -9.4991 H       0      r0     0.1060
    497 H            5.9123    -9.4983   -12.8884 H       0      r0     0.0994
    498 H           -1.5415   -10.5173   -14.3665 H       0      r0     0.0948
    499 H           -3.5068   -11.6872   -13.0040 H       0      r0     0.1038
    500 H           -3.7013   -13.0337   -10.8337 H       0      r0     0.0273
    501 H           -2.1617   -13.5704    -9.9417 H       0      r0     0.0417
    502 C            7.5042    -0.4699   -17.4838 C       5      r5     0.1602
    503 O            6.4146    -1.3294   -17.7396 O       5      r5    -0.4579
    504 C            5.7357    -0.8247   -16.3562 C       5      r5     0.1240
    505 C            6.3983     0.1257   -15.5169 C       5      r5    -0.0216
    506 C            7.5638     0.3047   -16.2818 C       5      r5    -0.0482
    507 C            8.6208    -0.2227   -18.0909 C       0      r0     0.1580
    508 C            4.5996    -1.1113   -15.7930 C       0      r0     0.0013
    509 H            6.1040     0.5559   -14.5884 H       0      r0     0.0598
    510 H            8.2635     1.1018   -16.0812 H       0      r0     0.0229
    511 H            9.3824     0.5284   -17.6761 H       0      r0     0.1035
    512 H            3.5543    -1.4905   -15.4724 H       0      r0     0.1002
    513 C           -9.1939   -10.4449     4.3926 C       5      r5     0.0962
    514 O           -7.7622   -10.6516     5.0702 O       5      r5    -0.4686
    515 C           -7.7954    -9.4797     5.8000 C       5      r5     0.1317
    516 C           -8.9149    -8.6459     5.8314 C       5      r5    -0.0260
    517 C           -9.7812    -9.2441     4.9203 C       5      r5    -0.0298
    518 C           -9.8089   -11.2442     3.5340 C       0      r0    -0.0113
    519 C           -6.6918    -9.0275     6.6746 C       0      r0    -0.0176
    520 H           -9.0697    -7.6904     6.3418 H       0      r0     0.0649
    521 H          -10.7257    -8.9791     4.6340 H       0      r0     0.0524
    522 H          -10.5186   -11.7362     2.8889 H       0      r0     0.0898
    523 H           -7.0131    -8.2919     7.4166 H       0      r0     0.0385
    524 C            1.6245    15.4865    15.8848 C       5      r5     0.1377
    525 O            0.5006    16.3495    15.8267 O       5      r5    -0.4511
    526 C            1.2012    17.5814    16.4587 C       5      r5     0.1262
    527 C            2.5364    17.2166    16.9000 C       5      r5    -0.0245
    528 C            2.7666    15.8936    16.5380 C       5      r5    -0.0313
    529 C            1.6622    14.1118    15.3394 C       0      r0    -0.0178
    530 C            0.6990    18.7679    16.6499 C       0      r0     0.0014
    531 H            3.2373    17.8968    17.3746 H       0      r0     0.0373
    532 H            3.6569    15.3531    16.7652 H       0      r0     0.0368
    533 H            2.6278    13.6074    15.4472 H       0      r0     0.0633
    534 H            0.1306   -18.3449    16.6535 H       0      r0     0.0837
    535 C           -4.1082    -8.9912   -16.7344 C       5      r5     0.0671
    536 C           -5.4454    -9.4084   -17.1753 C       5      r5    -0.0316
    537 C           -5.2856   -10.6810   -17.3172 C       5      r5    -0.0229
    538 C           -3.7858   -11.0857   -17.0368 C       5      r5     0.1461
    539 C           -1.6770   -10.9156   -18.5024 C       5      r5     0.1655
    540 O           -0.8736    -9.8711   -18.2271 O       5      r5    -0.4834
    541 C           -1.6664    -8.5060   -18.0821 C       5      r5     0.1177
    542 C           -3.1800    -8.9614   -18.1157 C       5      r5    -0.0030
    543 C           -3.0739   -10.5141   -18.3340 C       5      r5     0.0360
    544 C           -1.0540    -7.4608   -18.0428 C       0      r0     0.0255
    545 C           -4.0807    -7.6504   -15.9695 C       0      r0    -0.0160
    546 C           -3.6689   -12.6911   -16.9072 C       0      r0    -0.0039
    547 C           -1.2262   -12.1788   -18.8680 C       0      r0     0.0079
    548 O           -3.2919   -10.2988   -16.0346 O       5      r5    -0.4519
    549 C           -3.3916    -4.3560    17.0308 C       0      r0    -0.0384
    550 C           -3.1810    -4.8826    18.2828 C       0      r0    -0.0296
    551 C           -2.3919    -6.0701    18.4915 C       0      r0    -0.0116
    552 C           -2.0222    -6.4037   -18.2227 C       0      r0     0.1216
    553 O           -2.2893    -5.5482   -17.0766 O       0      r0    -0.4958
    554 O           -3.4457   -12.8594    18.2134 O       5      r5    -0.5059
    555 C           -2.0757   -13.1606    18.5073 C       5      r5     0.1161
    556 C           -1.5485   -14.3681    18.0308 C       5      r5    -0.0118
    557 C           -2.6308   -15.0315    17.5051 C       5      r5    -0.0280
    558 C           -3.8706   -14.1951    17.5287 C       5      r5     0.0857
    559 O           -3.8597    -6.7657   -13.6421 O       5      r5    -0.4910
    560 C           -4.3120    -7.4739   -12.2964 C       5      r5     0.1036
    561 C           -4.7754    -8.7901   -12.6040 C       5      r5    -0.0148
    562 C           -4.5857    -9.0542   -13.9694 C       5      r5     0.0041
    563 C           -4.1390    -7.8339   -14.4593 C       5      r5     0.1455
    564 C           -4.6135   -13.1439   -15.7733 C       5      r5     0.1556
    565 C           -5.7159   -13.9195   -16.2289 C       5      r5    -0.0392
    566 C           -6.4370   -14.1977   -15.1094 C       5      r5    -0.0276
    567 C           -5.7169   -13.6939   -13.8768 C       5      r5     0.0805
    568 O           -4.3417   -13.0025   -14.4923 O       5      r5    -0.4621
    569 C           -4.1345    -6.9570   -11.1114 C       0      r0    -0.0153
    570 C           -4.9300   -14.5932    17.1010 C       0      r0    -0.0434
    571 H           -6.3303    -8.8011   -17.4865 H       0      r0     0.0804
    572 H           -6.0393   -11.4116   -17.6375 H       0      r0     0.0468
    573 H           -3.7570    -8.4683   -18.8533 H       0      r0     0.0384
    574 H           -3.7217   -10.8978    18.8271 H       0      r0     0.0874
    575 H           -0.0128    -7.2478   -18.0490 H       0      r0     0.0873
    576 H           -3.1843    -6.9345   -16.2443 H       0      r0     0.1245
    577 H           -4.7604    -6.9367   -16.3867 H       0      r0     0.0473
    578 H           -3.9526   -13.1547   -17.8657 H       0      r0     0.0837
    579 H           -2.6537   -13.0921   -16.7640 H       0      r0     0.0700
    580 H           -0.1382   -12.3944   -18.7321 H       0      r0     0.0660
    581 H           -3.5447    -4.2648   -18.9054 H       0      r0     0.0775
    582 H           -2.2164    -6.5797    17.5692 H       0      r0     0.0607
    583 H           -0.5292   -14.6364    18.0788 H       0      r0     0.0768
    584 H           -2.6330   -16.0255    17.0532 H       0      r0     0.0968
    585 H           -5.0575    -9.5175   -11.8946 H       0      r0     0.0653
    586 H           -4.8789    -9.9040   -14.5250 H       0      r0     0.1059
    587 H           -6.0115   -14.2408   -17.2219 H       0      r0     0.0304
    588 H           -7.4031   -14.6691   -15.1357 H       0      r0     0.0622
    589 H           -4.5068    -7.3910   -10.2366 H       0      r0     0.0831
    590 H           -3.6509    -6.0227   -11.0090 H       0      r0     0.0790
    591 H           -4.9925   -15.5418    16.6137 H       0      r0     0.0354
    592 H           -5.8603   -14.0646    17.1083 H       0      r0     0.1208
    593 C           -9.5354   -15.7963   -10.4207 C       5      r5     0.1336
    594 C           -8.6628   -17.0827   -10.1344 C       5      r5    -0.0111
    595 C           -8.8075   -17.5052    -8.9228 C       5      r5    -0.0355
    596 C           -9.8374   -16.5376    -8.4753 C       5      r5     0.0753
    597 C           -9.7965   -14.1309    -7.5602 C       5      r5     0.1613
    598 O          -10.1003   -13.0991    -8.4501 O       5      r5    -0.4896
    599 C           -9.3568   -13.3592    -9.6034 C       5      r5     0.1359
    600 C           -8.7380   -14.7091    -9.6110 C       5      r5     0.0073
    601 C           -9.0447   -15.2905    -8.1421 C       5      r5     0.0272
    602 C           -9.1183   -12.2861   -10.4481 C       0      r0     0.0196
    603 C           -9.7291   -15.4299   -11.9225 C       0      r0    -0.0327
    604 C          -10.6250   -17.1647    -7.2073 C       0      r0    -0.0105
    605 C          -10.1897   -14.1806    -6.2546 C       0      r0     0.0067
    606 O          -10.7349   -15.9463    -9.7411 O       5      r5    -0.4852
    607 C           -7.1066   -11.5218   -13.2045 C       5      r5     0.1286
    608 C           -6.5971   -12.8482   -12.9827 C       5      r5     0.0101
    609 C           -7.4341   -13.2989   -11.9045 C       5      r5    -0.0194
    610 C           -8.3398   -12.2752   -11.5462 C       5      r5     0.1296
    611 O           -8.3413   -11.1405   -12.3197 O       5      r5    -0.4498
    612 O           -8.7918   -16.0939    -5.4579 O       5      r5    -0.4634
    613 C           -9.7025   -15.1095    -5.2552 C       5      r5     0.1350
    614 C          -10.2194   -14.9346    -3.9604 C       5      r5    -0.0207
    615 C           -9.5590   -15.7421    -3.0158 C       5      r5    -0.0266
    616 C           -8.7125   -16.4621    -3.9135 C       5      r5     0.1186
    617 O           -7.2161   -16.1336   -12.2068 O       5      r5    -0.4891
    618 C           -6.6129   -16.8524   -13.5102 C       5      r5     0.0862
    619 C           -7.6877   -17.0399   -14.4390 C       5      r5    -0.0310
    620 C           -8.8421   -16.4802   -13.9269 C       5      r5    -0.0303
    621 C           -8.4958   -15.9994   -12.7045 C       5      r5     0.1114
    622 C          -11.5827   -18.3089    -7.4913 C       0      r0     0.1478
    623 C          -12.0357   -18.2882    -8.7388 C       0      r0    -0.0054
    624 C          -12.9826    18.7572    -9.3125 C       0      r0    -0.0251
    625 C          -13.5821    17.6560    -8.6786 C       0      r0     0.0403
    626 O          -11.8828    18.8010    -6.5184 O       0      r0    -0.5018
    627 C           -5.3929   -17.2741   -13.8209 C       0      r0    -0.0450
    628 C           -8.0403   -17.2895    -3.2352 C       0      r0    -0.0264
    629 H           -7.9894   -17.4964   -10.9093 H       0      r0     0.1111
    630 H           -8.4241   -18.3877    -8.4257 H       0      r0     0.0786
    631 H           -7.6846   -14.6457    -9.9237 H       0      r0     0.0381
    632 H           -8.2496   -15.7130    -7.5832 H       0      r0     0.0981
    633 H           -9.7391   -11.4467   -10.1650 H       0      r0     0.1002
    634 H          -10.6483   -15.8266   -12.2902 H       0      r0     0.0429
    635 H           -9.8765   -14.3879   -12.1474 H       0      r0     0.0423
    636 H           -9.9266   -17.7332    -6.6425 H       0      r0     0.1176
    637 H          -11.0004   -16.4085    -6.5677 H       0      r0     0.0612
    638 H          -10.8384   -13.4156    -5.8642 H       0      r0     0.0602
    639 H           -5.3351   -14.5253   -13.2171 H       0      r0     0.0988
    640 H           -7.3735   -14.2690   -11.5311 H       0      r0     0.0872
    641 H          -10.9662   -14.1992    -3.6949 H       0      r0     0.0538
    642 H           -9.6898   -15.7553    -1.9222 H       0      r0     0.0702
    643 H           -7.6662   -17.5759   -15.3516 H       0      r0     0.0490
    644 H           -9.8205   -16.4715   -14.3924 H       0      r0     0.0593
    645 H          -11.7441   -17.4070    -9.3559 H       0      r0     0.1176
    646 H          -13.1201    18.7043   -10.3433 H       0      r0     0.0691
    647 H           -5.1188   -17.8186   -14.7311 H       0      r0     0.0706
    648 H           -4.5746   -17.1272   -13.1091 H       0      r0     0.0631
    649 H           -8.1044   -17.4162    -2.1188 H       0      r0     0.0439
    650 H           -7.2924   -17.8647    -3.6813 H       0      r0     0.0764
    651 C            3.2758    -5.9365   -16.2161 C       6      r6     0.1126
    652 C            2.1108    -6.6992   -15.6394 C       6      r6    -0.0344
    653 C            1.7299    -7.9269   -16.0645 C       6      r6    -0.0333
    654 C            2.4031    -8.5271   -17.1293 C       6      r6    -0.0093
    655 C            4.5145    -8.1374   -18.6273 C       5      r5     0.0702
    656 O            5.1767    -6.4581   -18.8319 O       5      r5    -0.5049
    657 C            4.1969    -5.6766   -18.6636 C       5      r5     0.1847
    658 C            3.1653    -6.3405   -17.7622 C       5      r5     0.0316
    659 C            3.3170    -7.7510   -17.8325 C       5      r5     0.0071
    660 C            4.0832    -4.3885    18.7801 C       0      r0     0.0295
    661 C            3.0579    -4.3871   -16.0086 C       0      r0     0.0044
    662 C            2.0339    -9.9432   -17.6175 C       0      r0    -0.0199
    663 C            5.3011    -9.1853   -17.9027 C       0      r0     0.0044
    664 O            4.6522    -6.2026   -15.9303 O       0      r0    -0.5910
    665 C            0.8201    -2.7634   -18.4922 C       5      r5     0.1069
    666 C            1.6378    -1.8193    18.7003 C       5      r5     0.0113
    667 C            2.9282    -2.2383    18.4222 C       5      r5    -0.0065
    668 C            2.9387    -3.5698    18.8757 C       5      r5     0.1298
    669 O            1.7252    -4.0452   -18.4801 O       5      r5    -0.4818
    670 O            5.2119   -10.7507    18.0568 O       0      r0    -0.4646
    671 C            5.6134   -10.3830   -18.4844 C       0      r0     0.1412
    672 C            6.3320   -11.1328   -17.5892 C       0      r0     0.0033
    673 C            6.8640   -12.4376   -17.9347 C       0      r0    -0.0121
    674 C            6.6878   -13.2024    18.9025 C       0      r0     0.0249
    675 O            2.3920    -2.9863   -14.3637 O       0      r0    -0.5128
    676 C            3.4185    -3.4725   -11.8685 C       0      r0     0.1608
    677 C            4.0176    -4.6275   -12.2461 C       0      r0    -0.0322
    678 C            3.8406    -4.7854   -13.6282 C       0      r0    -0.0160
    679 C            3.0870    -3.9264   -14.5591 C       0      r0     0.1696
    680 C            2.3388   -11.0462   -16.5229 C       3      r3     0.0763
    681 C            1.3379   -12.0999   -16.2331 C       3      r3    -0.0157
    682 C            3.1576   -13.1786   -16.0275 C       0      r0     0.0073
    683 C            4.1431   -12.4153   -15.2538 C       0      r0     0.0693
    684 O            3.6984   -10.7597   -15.4847 O       0      r0    -0.5383
    685 C            4.9760   -12.8844   -14.5059 C       0      r0    -0.0430
    686 C           -0.3170    -2.7141   -18.0706 C       0      r0    -0.0283
    687 H            1.6154    -6.1816   -14.8256 H       0      r0     0.0479
    688 H            0.9208    -8.4525   -15.6389 H       0      r0     0.0637
    689 H            2.1524    -5.9964   -17.9573 H       0      r0     0.1038
    690 H            4.3459    -8.2691    18.2655 H       0      r0     0.1247
    691 H            5.0048    -4.0784    18.2570 H       0      r0     0.1186
    692 H            3.7715    -3.8274   -16.5911 H       0      r0     0.0633
    693 H            2.0681    -4.0262   -16.3884 H       0      r0     0.1077
    694 H            0.9739   -10.1180   -17.9588 H       0      r0     0.1249
    695 H            2.3646   -10.1647   -18.6318 H       0      r0     0.0647
    696 H            5.4762    -9.0819   -16.8628 H       0      r0     0.0754
    697 H            1.3475    -0.8208    18.4232 H       0      r0     0.1138
    698 H            3.7748    -1.7278    18.0300 H       0      r0     0.0603
    699 H            6.6595   -10.6829   -16.6981 H       0      r0     0.0675
    700 H            7.4932   -13.0940   -17.2824 H       0      r0     0.0656
    701 H            4.4770    -5.2250   -11.5174 H       0      r0     0.0411
    702 H            4.2808    -5.6958   -14.0436 H       0      r0     0.1030
    703 H            1.0492   -12.5213   -15.2732 H       0      r0     0.1027
    704 H           -1.3528    18.3057   -17.2204 H       0      r0     0.1684
    705 H            5.1112   -14.0013   -14.5286 H       0      r0     0.0431
    706 H            5.6009   -12.2623   -13.8790 H       0      r0     0.0769
    707 H           -0.9324    -1.8525   -18.1551 H       0      r0     0.0422
    708 H           -0.8378    -3.5158   -17.5458 H       0      r0     0.0929
    709 C           -0.5453   -17.0801   -16.0235 C       6      r6     0.0848
    710 C           -1.7617   -16.2023   -15.8686 C       6      r6    -0.0171
    711 C           -2.9167   -16.1589   -16.5360 C       6      r6    -0.0457
    712 C           -2.8653   -17.0854   -17.5786 C       6      r6    -0.0227
    713 C           -1.3395    18.8428   -18.2081 C       5      r5     0.1033
    714 O            0.3780    18.7699   -18.1608 O       5      r5    -0.4394
    715 C            0.8251   -18.0842   -17.8275 C       5      r5     0.1857
    716 C           -0.2466   -17.0885   -17.4770 C       5      r5     0.0112
    717 C           -1.5583   -17.6335   -18.1741 C       5      r5    -0.0063
    718 C            2.1550   -17.7133   -17.8113 C       0      r0     0.0089
    719 C            0.6016   -16.4890   -15.1862 C       0      r0     0.0082
    720 C           -4.2122   -17.3115   -18.3267 C       0      r0    -0.0540
    721 C           -2.0285    18.1807    18.6324 C       0      r0     0.0226
    722 O           -0.7347   -18.6796   -15.3233 O       0      r0    -0.4406
    723 C            3.1698   -14.3819   -16.8894 C       5      r5     0.0971
    724 C            4.4144   -14.9588   -17.1381 C       5      r5    -0.0303
    725 C            4.0736   -16.2249   -17.6499 C       5      r5    -0.0191
    726 C            2.6567   -16.4060   -17.5880 C       5      r5     0.1061
    727 O            1.9020   -15.2448   -17.3264 O       5      r5    -0.5003
    728 O           -2.2855   -17.9874    16.9312 O       5      r5    -0.5007
    729 C           -2.4036    18.7474    17.4438 C       5      r5     0.1450
    730 C           -2.9262    17.7007    16.7039 C       5      r5    -0.0077
    731 C           -3.2274    18.2843    15.3799 C       5      r5    -0.0177
    732 C           -2.8231   -18.4242    15.4978 C       5      r5     0.1054
    733 O            0.3064   -14.4709   -13.9558 O       5      r5    -0.4627
    734 C           -0.0529   -14.2097   -12.2701 C       5      r5     0.1790
    735 C           -0.4176   -15.5403   -11.7532 C       5      r5    -0.0297
    736 C           -0.1635   -16.5085   -12.7367 C       5      r5    -0.0092
    737 C            0.2112   -15.8111   -13.8494 C       5      r5     0.1382
    738 C           -5.1281   -18.3028   -17.4848 C       5      r5     0.1306
    739 C           -6.4549   -17.9877   -17.5666 C       5      r5    -0.0412
    740 C           -7.1228    18.9964   -16.9286 C       5      r5    -0.0292
    741 C           -6.1323    18.1440   -16.2890 C       5      r5     0.0859
    742 O           -4.6970    18.6939   -16.7576 O       5      r5    -0.4722
    743 C           -6.3859    17.2432   -15.3980 C       0      r0    -0.0315
    744 C            2.3818   -12.4370   -16.9730 C       3      r3     0.0112
    745 H           -1.7051   -15.5472   -15.0253 H       0      r0     0.0929
    746 H           -3.8463   -15.6826   -16.1851 H       0      r0     0.0529
    747 H            0.0020   -16.0304   -17.7723 H       0      r0     0.0780
    748 H           -1.6342   -17.4182    18.6611 H       0      r0     0.1074
    749 H            2.8308   -18.5097   -17.9702 H       0      r0     0.0830
    750 H            1.4174   -17.2431   -15.1225 H       0      r0     0.0780
    751 H            1.0922   -15.7552   -15.8485 H       0      r0     0.1373
    752 H           -4.7815   -16.4558   -18.5107 H       0      r0     0.0218
    753 H           -4.1815   -17.6409    18.6284 H       0      r0     0.0605
    754 H           -2.1866    17.1135    18.9116 H       0      r0     0.1315
    755 H            5.4267   -14.6811   -17.0279 H       0      r0     0.0607
    756 H            4.8259   -16.9814   -17.9614 H       0      r0     0.0908
    757 H           -2.9956    16.6634    17.0005 H       0      r0     0.0902
    758 H           -3.7372    17.8534    14.5430 H       0      r0     0.0693
    759 H           -0.6525   -15.7774   -10.7322 H       0      r0     0.0320
    760 H           -0.1852   -17.5434   -12.5580 H       0      r0     0.1159
    761 H           -6.8995   -17.0865   -17.9627 H       0      r0     0.0274
    762 H           -8.1242    18.8751   -16.7719 H       0      r0     0.0504
    763 H           -7.4406    17.0380   -15.2157 H       0      r0     0.1111
    764 H           -5.6186    16.7059   -14.8910 H       0      r0     0.0549
    765 H            5.0496    -6.6774   -16.7618 H       0      r0     0.2906
    766 H            3.2133   -10.6372   -14.5658 H       0      r0     0.3342
    767 C           -0.7188     5.3357    -5.4081 C       0      r0     0.1902
    768 C           -2.0614     5.9798    -5.4461 C       0      r0     0.0059
    769 C           -3.2306     5.3411    -5.5830 C       0      r0     0.0087
    770 C           -3.3113     3.9239    -5.4924 C       0      r0     0.1887
    771 C           -4.6527     3.5135    -6.0222 C       0      r0    -0.0059
    772 O           -2.3789     3.1102    -5.2623 O       0      r0    -0.4739
    773 O            0.0042     5.6314    -4.5291 O       0      r0    -0.4934
    774 C           -5.8035     3.6140    -5.0217 C       5      r5     0.1400
    775 C           -7.0294     3.7436    -5.6331 C       5      r5    -0.0169
    776 C           -7.9112     3.9177    -4.6024 C       5      r5     0.0066
    777 C           -7.1249     3.8910    -3.3423 C       5      r5     0.1179
    778 O           -5.6268     3.6465    -3.6582 O       5      r5    -0.4900
    779 C           -7.6423     4.0706    -2.2550 C       0      r0    -0.0263
    780 C           -0.3668     4.4396    -6.6089 C       0      r0     0.0218
    781 C            2.8999     5.0480    -8.4523 C       5      r5     0.0636
    782 C            2.8527     6.0425    -7.4511 C       5      r5    -0.0420
    783 C            1.6115     5.9462    -6.7668 C       5      r5    -0.0035
    784 C            0.9903     4.8857    -7.2804 C       5      r5     0.1395
    785 O            1.4966     4.1796    -8.3318 O       5      r5    -0.4634
    786 H           -2.1118     7.0896    -5.3193 H       0      r0     0.0583
    787 H           -4.1370     5.9774    -5.6630 H       0      r0     0.0921
    788 H           -4.9462     4.1874    -6.9101 H       0      r0     0.0610
    789 H           -4.5883     2.4944    -6.4608 H       0      r0     0.0531
    790 H           -7.3233     3.7356    -6.6919 H       0      r0     0.0777
    791 H           -8.9491     4.0797    -4.7041 H       0      r0     0.1273
    792 H           -8.7281     4.1781    -2.1016 H       0      r0     0.0581
    793 H           -7.1737     4.0568    -1.2839 H       0      r0     0.0445
    794 H           -0.3813     3.3690    -6.3795 H       0      r0     0.1349
    795 H           -1.2166     4.4803    -7.2932 H       0      r0     0.0886
    796 H            3.7315     6.7044    -7.2481 H       0      r0     0.0397
    797 H            1.2520     6.6527    -5.9966 H       0      r0     0.0943
    798 C           -7.5912    15.8277     7.1588 C       0      r0     0.1562
    799 C           -8.0445    16.8661     7.9950 C       0      r0    -0.0306
    800 C           -9.2108    17.6548     7.9804 C       0      r0    -0.0106
    801 C          -10.4071    17.6293     7.3232 C       0      r0     0.1341
    802 C          -10.4932    16.8712     6.0754 C       0      r0     0.0013
    803 O          -11.5096    18.3723     7.6204 O       0      r0    -0.4867
    804 O           -8.0880    15.3762     6.1712 O       0      r0    -0.4955
    805 C          -10.4629    17.7374     4.8109 C       5      r5     0.1544
    806 C           -9.9398    18.9878     5.0454 C       5      r5     0.0100
    807 C           -9.9861   -18.3778     3.8348 C       5      r5    -0.0141
    808 C          -10.3850    18.7367     2.7350 C       5      r5     0.1016
    809 O          -10.8270    17.3961     3.5474 O       5      r5    -0.4584
    810 C          -10.3919    18.9543     1.5493 C       0      r0    -0.0294
    811 C           -6.1020    15.3731     7.5397 C       0      r0    -0.0131
    812 C           -8.3177    13.5447    11.5685 C       0      r0     0.1559
    813 C           -7.1524    13.8863    10.7784 C       0      r0    -0.0082
    814 C           -7.2663    14.4232     9.4235 C       0      r0    -0.0313
    815 C           -6.0773    14.7758     8.9334 C       0      r0     0.1059
    816 O           -4.7479    14.5315     9.5192 O       0      r0    -0.4993
    817 H           -7.2899    17.1068     8.7438 H       0      r0     0.0333
    818 H           -9.4604    18.4243     8.7441 H       0      r0     0.0845
    819 H           -9.6957    16.1097     5.9631 H       0      r0     0.1236
    820 H          -11.4838    16.3950     5.9858 H       0      r0     0.0703
    821 H           -9.5923   -18.6159     5.9427 H       0      r0     0.1048
    822 H           -9.6605   -17.3590     3.7718 H       0      r0     0.0666
    823 H           -9.9986   -18.1427     1.0868 H       0      r0     0.0402
    824 H          -10.8037    18.1741     0.7895 H       0      r0     0.0631
    825 H           -5.6944    14.7665     6.6468 H       0      r0     0.0981
    826 H           -5.2723    16.1036     7.5673 H       0      r0     0.0507
    827 H           -6.1729    13.6102    11.1664 H       0      r0     0.1468
    828 H           -8.2541    14.4691     8.9543 H       0      r0     0.0676
    829 C           -6.3857     8.6393    -8.2427 C       5      r5     0.1205
    830 O           -6.2855     7.8358    -6.8398 O       5      r5    -0.4435
    831 C           -7.1364     8.6896    -6.1968 C       5      r5     0.1467
    832 C           -7.6919     9.7455    -6.9335 C       5      r5    -0.0123
    833 C           -7.3580     9.6388    -8.3029 C       5      r5    -0.0099
    834 C           -5.6817     8.2230    -9.3368 C       0      r0     0.0136
    835 C           -8.1588     9.3441    -3.9985 C       0      r0     0.1369
    836 O           -9.0496     8.9188    -2.8413 O       0      r0    -0.4653
    837 C           -8.9773    11.5809    -2.4276 C       0      r0     0.1709
    838 C           -7.9771    11.6846    -3.3841 C       0      r0    -0.0059
    839 C           -7.6439    10.4934    -4.2761 C       0      r0    -0.0271
    840 C           -7.7023     8.3729    -4.9000 C       0      r0     0.0337
    841 C           -5.9074     8.8739   -10.6218 C       5      r5     0.1352
    842 C           -5.0018     8.1814   -11.4224 C       5      r5    -0.0407
    843 C           -5.2575     8.8732   -12.6734 C       5      r5    -0.0295
    844 C           -6.2825     9.8500   -12.4829 C       5      r5     0.0992
    845 O           -6.8174     9.8167   -11.0389 O       5      r5    -0.4703
    846 C           -6.5058    10.4235   -13.5495 C       0      r0    -0.0440
    847 H           -8.4112    10.5054    -6.6725 H       0      r0     0.0620
    848 H           -7.6823    10.1526    -9.1625 H       0      r0     0.0962
    849 H           -4.9754     7.3665    -9.2282 H       0      r0     0.1173
    850 H           -7.2387    12.4157    -3.2436 H       0      r0     0.0765
    851 H           -7.0005    10.6652    -5.1535 H       0      r0     0.0319
    852 H           -7.9175     7.3826    -4.6419 H       0      r0     0.1021
    853 H           -4.2445     7.4329   -11.2136 H       0      r0     0.0350
    854 H           -4.8377     8.6438   -13.6370 H       0      r0     0.0708
    855 H           -6.0052    10.1701   -14.4676 H       0      r0     0.0781
    856 H           -7.2317    11.1548   -13.5681 H       0      r0     0.0537
    857 C          -16.9282    10.9393    -5.4919 C       5      r5     0.1481
    858 O          -17.5303    11.7902    -6.3987 O       5      r5    -0.4766
    859 C          -16.3034    12.7842    -6.4344 C       5      r5     0.0884
    860 C          -15.2011    12.4351    -5.7448 C       5      r5    -0.0389
    861 C          -15.5885    11.2395    -5.0944 C       5      r5    -0.0108
    862 C          -17.6255     9.8801    -4.9023 C       0      r0     0.0060
    863 C          -15.4965    14.9077    -7.3914 C       5      r5     0.1239
    864 O          -15.5984    15.9777    -8.2920 O       5      r5    -0.4632
    865 C          -14.1703    16.5753    -7.9658 C       5      r5     0.1334
    866 C          -13.5360    16.0199    -6.8708 C       5      r5    -0.0071
    867 C          -14.3610    14.9327    -6.5160 C       5      r5    -0.0279
    868 C          -16.4751    13.9297    -7.2399 C       0      r0     0.0068
    869 C          -17.1454     9.0669    -3.8533 C       5      r5     0.0995
    870 C          -17.9546     8.0731    -3.3181 C       5      r5    -0.0193
    871 C          -17.2156     7.5200    -2.3314 C       5      r5    -0.0239
    872 C          -15.9515     8.2252    -2.2150 C       5      r5     0.1222
    873 O          -15.7874     9.2752    -3.2018 O       5      r5    -0.4897
    874 C          -15.0163     7.7565    -1.3247 C       0      r0    -0.0364
    875 H          -14.2233    12.7692    -5.7290 H       0      r0     0.0409
    876 H          -14.9886    10.5720    -4.4915 H       0      r0     0.1038
    877 H          -18.5401     9.7469    -5.3682 H       0      r0     0.0800
    878 H          -12.6101    16.3529    -6.4075 H       0      r0     0.0865
    879 H          -14.2142    14.2156    -5.7032 H       0      r0     0.0584
    880 H          -17.3845    13.8633    -7.8288 H       0      r0     0.1218
    881 H           18.2660     7.7922    -3.6202 H       0      r0     0.1019
    882 H          -17.4849     6.6832    -1.7421 H       0      r0     0.0546
    883 H          -15.3436     7.0594    -0.5538 H       0      r0     0.0290
    884 H          -13.9986     8.1508    -1.2771 H       0      r0     0.0818
    885 C           -5.3156    -0.7710    14.6778 C       5      r5     0.1253
    886 O           -4.7322    -2.1596    14.1202 O       5      r5    -0.4527
    887 C           -4.3250    -2.5498    15.5681 C       5      r5     0.1257
    888 C           -4.6046    -1.7555    16.6514 C       5      r5    -0.0294
    889 C           -5.2189    -0.6371    16.1157 C       5      r5    -0.0126
    890 C           -5.9835     0.0882    14.0044 C       0      r0     0.0101
    891 C           -3.6441    -3.8033    15.7590 C       0      r0    -0.0032
    892 H           -4.4794    -1.9906    17.7067 H       0      r0     0.0364
    893 H           -5.5314     0.1838    16.6906 H       0      r0     0.0649
    894 H           -6.5918     0.8810    13.5276 H       0      r0     0.0707
    895 H           -3.3445    -4.4060    14.8722 H       0      r0     0.0779
    896 C           -5.6738   -14.3516    -7.3312 C       0      r0     0.0905
    897 O           -5.8171   -15.1576    -5.9034 O       0      r0    -0.4137
    898 C           -6.1086   -16.5892    -6.8153 C       0      r0     0.1283
    899 C           -6.0283   -16.4912    -8.2563 C       0      r0    -0.0257
    900 C           -5.6552   -15.1380    -8.5693 C       0      r0    -0.0424
    901 C           -5.3016   -13.1231    -7.5206 C       0      r0    -0.0547
    902 C           -6.3415   -17.7971    -6.3651 C       0      r0     0.0242
    903 H           -6.3030   -17.2431    -8.9865 H       0      r0     0.0758
    904 H           -5.4956   -14.7668    -9.5234 H       0      r0     0.0387
    905 H           -4.9718   -12.2109    -7.8246 H       0      r0     0.0296
    906 H           -6.5200   -18.7209    -5.9087 H       0      r0     0.0829
    907 C          -16.7961     9.5088    11.9863 C       5      r5     0.1217
    908 O          -15.8057    10.6374    11.6377 O       5      r5    -0.4455
    909 C          -16.7773    11.7200    11.8207 C       5      r5     0.1421
    910 C          -18.0122    11.4419    12.3511 C       5      r5    -0.0250
    911 C          -18.0810    10.0415    12.3299 C       5      r5    -0.0109
    912 C          -16.6521     8.1950    11.9364 C       0      r0     0.0021
    913 C          -16.5984    13.1626    11.6075 C       0      r0    -0.0272
    914 H           18.4307    12.1201    12.6335 H       0      r0     0.0333
    915 H           18.2245     9.5177    12.6189 H       0      r0     0.1051
    916 H          -16.8023     7.0860    11.9676 H       0      r0     0.0684
    917 H          -17.3431    13.9294    11.7921 H       0      r0     0.0330
    918 C           17.0579    12.9337    -9.9801 C       5      r5     0.0605
    919 C           16.3423    11.8281    -9.2990 C       5      r5    -0.0373
    920 C           17.3161    10.9656    -9.2459 C       5      r5    -0.0251
    921 C           18.6125    11.5019    -9.8898 C       5      r5     0.1332
    922 C          -17.9079    12.2623   -12.2864 C       5      r5     0.1638
    923 O          -18.3045    13.5009   -12.8030 O       5      r5    -0.4849
    924 C           17.5753    13.6522   -12.3498 C       5      r5     0.1187
    925 C           17.1106    12.5533   -11.4378 C       5      r5    -0.0025
    926 C           18.3130    11.5498   -11.4155 C       5      r5     0.0254
    927 C           16.7028    14.5960   -12.7575 C       0      r0     0.0000
    928 C           16.4067    14.3347    -9.5406 C       0      r0    -0.0180
    929 C          -17.3712    10.6103    -9.3070 C       0      r0     0.0127
    930 C          -16.6190    11.7969   -12.3890 C       0      r0     0.0179
    931 O          -18.4890    12.8057    -9.5836 O       5      r5    -0.4754
    932 C           13.3565    16.0822   -12.0400 C       5      r5     0.2002
    933 C           13.3947    14.6311   -11.4907 C       5      r5    -0.0159
    934 C           14.5271    13.9442   -11.8448 C       5      r5    -0.0330
    935 C           15.3233    14.8904   -12.5379 C       5      r5     0.1266
    936 O           14.8355    16.0963   -13.0383 O       5      r5    -0.4888
    937 O          -16.9393     9.3791   -11.9052 O       5      r5    -0.4820
    938 C          -16.1315    10.4823   -12.0813 C       5      r5     0.1244
    939 C          -14.7378    10.2860   -12.1142 C       5      r5    -0.0136
    940 C          -14.3593     8.9440   -11.9082 C       5      r5    -0.0185
    941 C          -15.6889     8.3798   -11.8200 C       5      r5     0.1016
    942 O           17.0328    16.1726    -7.9117 O       5      r5    -0.4716
    943 C           17.6012    15.8933    -6.4237 C       5      r5     0.0954
    944 C           17.8693    14.4528    -6.2465 C       5      r5    -0.0198
    945 C           17.4065    13.8341    -7.3542 C       5      r5     0.0041
    946 C           16.9265    14.8424    -8.1807 C       5      r5     0.1542
    947 C          -17.6428     9.1258    -8.9925 C       5      r5     0.1670
    948 C          -18.4531     8.4338    -9.9002 C       5      r5     0.0074
    949 C           18.5729     7.2277    -9.3455 C       5      r5    -0.0129
    950 C          -17.9724     7.0594    -8.0222 C       5      r5     0.0764
    951 O          -17.1068     8.5232    -7.9504 O       5      r5    -0.4751
    952 C           17.8888    16.8159    -5.6830 C       0      r0    -0.0244
    953 C          -15.5811     7.1300   -11.6437 C       0      r0    -0.0355
    954 H           15.2602    11.7043    -8.9564 H       0      r0     0.0919
    955 H           17.2138    10.0461    -8.7863 H       0      r0     0.0492
    956 H           16.0996    12.0572   -11.7151 H       0      r0     0.1010
    957 H           18.0954    10.6094   -11.8024 H       0      r0     0.0633
    958 H           17.2828    15.1630   -13.5330 H       0      r0     0.1085
    959 H           16.6248    15.0521   -10.3669 H       0      r0     0.0707
    960 H           15.2902    14.2578    -9.5253 H       0      r0     0.0516
    961 H          -16.4390    10.6852    -9.9292 H       0      r0     0.0754
    962 H          -17.0892    11.0411    -8.3548 H       0      r0     0.1323
    963 H          -15.9615    12.4859   -12.9500 H       0      r0     0.1081
    964 H           12.6054    14.1801   -10.8939 H       0      r0     0.0563
    965 H           14.7199    12.9410   -11.5661 H       0      r0     0.0740
    966 H          -14.0220    11.0662   -12.2816 H       0      r0     0.0809
    967 H          -13.3772     8.5056   -11.9213 H       0      r0     0.0770
    968 H           18.4033    14.0142    -5.3994 H       0      r0     0.0624
    969 H           17.3832    12.7878    -7.6122 H       0      r0     0.0956
    970 H           18.3774     8.8639   -10.7793 H       0      r0     0.0753
    971 H           17.9864     6.5610    -9.9143 H       0      r0     0.0643
    972 H           18.3807    16.7488    -4.7053 H       0      r0     0.0863
    973 H           17.6823    17.8526    -5.8510 H       0      r0     0.0659
    974 H          -14.6148     6.6733   -11.6336 H       0      r0     0.0365
    975 H          -16.3998     6.4350   -11.4860 H       0      r0     0.0978
    976 C           15.4103     3.3597    -7.1828 C       5      r5     0.0701
    977 C           16.0741     2.4742    -8.1640 C       5      r5    -0.0540
    978 C           15.5736     1.3442    -7.8237 C       5      r5    -0.0340
    979 C           14.7469     1.4773    -6.4913 C       5      r5     0.1289
    980 C           14.8710     2.1445    -4.0996 C       5      r5     0.1807
    981 O           14.8367     3.4306    -3.7331 O       5      r5    -0.4800
    982 C           15.6758     4.1011    -4.7041 C       5      r5     0.1421
    983 C           16.1840     3.2117    -5.8047 C       5      r5    -0.0064
    984 C           15.6682     1.8560    -5.3014 C       5      r5     0.0310
    985 C           15.8730     5.4368    -4.5899 C       0      r0     0.0278
    986 C           15.3767     4.7991    -7.7786 C       0      r0    -0.0244
    987 C           13.9852     0.1059    -6.4726 C       0      r0    -0.0029
    988 C           14.1776     1.1284    -3.3701 C       0      r0    -0.0031
    989 O           14.0409     2.6603    -6.5437 O       5      r5    -0.4448
    990 C           17.7134     8.0750    -6.1863 C       5      r5     0.1096
    991 C           18.2363     6.9698    -6.9545 C       5      r5     0.0081
    992 C           17.5809     5.8716    -6.3489 C       5      r5    -0.0183
    993 C           16.7150     6.3252    -5.3121 C       5      r5     0.1388
    994 O           16.7077     7.6379    -4.9785 O       5      r5    -0.4967
    995 O           15.5216    -0.8257    -4.4442 O       0      r0    -0.4887
    996 C           14.4026    -0.2124    -3.4351 C       0      r0     0.0802
    997 C           13.6401    -1.0023    -2.6216 C       0      r0    -0.0196
    998 C           13.9142    -2.3832    -2.8202 C       0      r0    -0.0102
    999 C           14.8827    -2.2932    -3.8328 C       0      r0     0.0930
   1000 O           14.3798     6.2924    -9.4980 O       5      r5    -0.4732
   1001 C           12.9260     6.1025   -10.2403 C       5      r5     0.0872
   1002 C           12.2147     4.9433    -9.6721 C       5      r5    -0.0095
   1003 C           13.0624     4.4061    -8.7280 C       5      r5     0.0042
   1004 C           14.1904     5.1811    -8.7482 C       5      r5     0.1432
   1005 C           12.5731     0.1928    -7.0350 C       0      r0     0.1463
   1006 C           12.4882     0.5265    -8.2773 C       0      r0     0.0032
   1007 C           11.1960     0.7352    -9.0592 C       0      r0    -0.0027
   1008 C           11.1192     1.3211   -10.2582 C       0      r0     0.1204
   1009 O           11.3652     0.0532    -6.2366 O       0      r0    -0.4959
   1010 C           12.4353     6.8008   -11.1102 C       0      r0    -0.0354
   1011 C           15.2483    -3.4760    -4.1820 C       0      r0    -0.0257
   1012 H           16.8371     2.6717    -8.8982 H       0      r0     0.0418
   1013 H           15.7710     0.3881    -8.3391 H       0      r0     0.0897
   1014 H           17.2497     3.3003    -5.9750 H       0      r0     0.0259
   1015 H           16.4313     1.1243    -5.0811 H       0      r0     0.0616
   1016 H           15.3134     5.8353    -3.7639 H       0      r0     0.1109
   1017 H           15.2176     5.5787    -6.9849 H       0      r0     0.0704
   1018 H           16.3909     5.0654    -8.1819 H       0      r0     0.0413
   1019 H           14.5372    -0.7789    -6.7773 H       0      r0     0.0678
   1020 H           13.6282    -0.1776    -5.4983 H       0      r0     0.1092
   1021 H           13.4108     1.4625    -2.6943 H       0      r0     0.0491
   1022 H          -17.3441     6.1517    -7.9381 H       0      r0     0.1025
   1023 H           17.8170     4.8316    -6.5592 H       0      r0     0.0451
   1024 H           12.9255    -0.5790    -1.9230 H       0      r0     0.0540
   1025 H           13.4784    -3.2111    -2.2603 H       0      r0     0.0772
   1026 H           11.2254     4.5958    -9.7812 H       0      r0     0.0811
   1027 H           12.9363     3.5661    -8.1239 H       0      r0     0.1167
   1028 H           13.5103     0.5816    -8.7371 H       0      r0     0.0404
   1029 H           10.2327     0.4363    -8.6541 H       0      r0     0.0895
   1030 H           11.4684     6.5284   -11.5754 H       0      r0     0.1037
   1031 H           12.8679     7.6678   -11.5414 H       0      r0     0.0474
   1032 H           14.8116    -4.3647    -3.6994 H       0      r0     0.0454
   1033 H           16.0834    -3.6085    -4.8812 H       0      r0     0.0747
   1034 C          -16.6659    16.9606   -11.6912 C       6      r6     0.1122
   1035 C          -17.1149    15.8697   -10.7358 C       6      r6     0.0081
   1036 C          -16.4223    14.7026   -10.7552 C       6      r6     0.0188
   1037 C          -15.3739    14.4429   -11.7551 C       6      r6    -0.0124
   1038 C          -14.2423    15.6976   -13.7167 C       5      r5     0.1389
   1039 O          -14.3811    17.0167   -14.0579 O       5      r5    -0.4937
   1040 C          -15.8594    17.1771   -14.1020 C       5      r5     0.1294
   1041 C          -16.5519    16.2660   -13.1410 C       5      r5     0.0009
   1042 C          -15.4812    15.0918   -13.1359 C       5      r5     0.0003
   1043 C          -16.5031    17.9952   -14.9504 C       0      r0     0.0108
   1044 C          -17.8759    17.8985   -11.6613 C       0      r0     0.0150
   1045 C          -14.2879    13.6677   -11.4548 C       0      r0    -0.0281
   1046 C          -13.1571    14.9543   -14.1646 C       0      r0    -0.0025
   1047 O          -15.5443    17.7919   -11.3310 O       0      r0    -0.5727
   1048 C           17.1811    18.0357   -15.2235 C       5      r5     0.1084
   1049 C           17.4841    18.9914   -16.2610 C       5      r5    -0.0159
   1050 C          -18.3756    18.9990   -16.1321 C       5      r5    -0.0016
   1051 C          -17.9199    18.0749   -15.1263 C       5      r5     0.1439
   1052 O           18.3639    17.3549   -14.5197 O       5      r5    -0.4986
   1053 O          -14.0910    12.5976   -14.0686 O       0      r0    -0.5854
   1054 C          -13.1560    13.5150   -14.3278 C       0      r0     0.1429
   1055 C          -11.8309    13.2650   -14.5488 C       0      r0    -0.0308
   1056 C          -11.3131    11.8935   -14.5773 C       0      r0    -0.0282
   1057 C          -12.0296    10.6917   -14.5280 C       0      r0     0.0019
   1058 O           17.8840   -18.5690   -10.4745 O       0      r0    -0.5189
   1059 C          -18.3323   -17.9037    -7.6949 C       0      r0     0.1674
   1060 C          -17.2492   -18.4082    -8.2851 C       0      r0     0.0013
   1061 C          -17.3514    18.6609    -9.4713 C       0      r0     0.0343
   1062 C          -18.2289    18.6385   -10.4270 C       0      r0     0.1683
   1063 C          -14.2060    12.7101   -10.3936 C       3      r3    -0.0295
   1064 C          -13.8406    12.6653    -9.0846 C       3      r3    -0.0249
   1065 C          -11.9736    11.6576    -9.3808 C       0      r0    -0.0090
   1066 C          -10.9750    12.8221    -9.1403 C       0      r0     0.1173
   1067 O          -11.2047    14.1289    -9.6041 O       0      r0    -0.5335
   1068 C           -9.9617    12.5034    -8.4091 C       0      r0    -0.0367
   1069 C           15.9290    17.9129   -15.1362 C       0      r0    -0.0146
   1070 H          -17.9364    16.0357   -10.0568 H       0      r0     0.0825
   1071 H          -16.5096    13.9018   -10.0470 H       0      r0     0.1143
   1072 H          -17.5128    15.9216   -13.5017 H       0      r0     0.1033
   1073 H          -15.7674    14.3710   -13.8925 H       0      r0     0.0969
   1074 H          -15.7857    18.4335   -15.6718 H       0      r0     0.0867
   1075 H          -17.8498    18.4880   -12.5653 H       0      r0     0.0956
   1076 H           18.4182    17.3627   -11.8708 H       0      r0     0.0773
   1077 H          -14.2597    11.9187   -14.8430 H       0      r0     0.2584
   1078 H          -13.4834    13.6355   -12.1638 H       0      r0     0.0804
   1079 H          -12.2922    15.4574   -14.5118 H       0      r0     0.0567
   1080 H           16.8013   -18.4772   -16.9359 H       0      r0     0.0701
   1081 H          -17.6693   -18.3895   -16.6863 H       0      r0     0.0585
   1082 H          -11.1482    14.0708   -14.5651 H       0      r0     0.0511
   1083 H          -10.2223    11.7185   -14.7808 H       0      r0     0.0742
   1084 H          -16.2476   -18.2258    -7.9502 H       0      r0     0.0507
   1085 H          -16.4853    17.9970    -9.5319 H       0      r0     0.1357
   1086 H          -13.5653    13.2240    -8.2400 H       0      r0     0.0757
   1087 H          -12.9317     5.8435    -5.4723 H       0      r0     0.3717
   1088 H           -9.9057    11.5036    -7.9818 H       0      r0     0.0406
   1089 H           -9.1624    13.1131    -8.1883 H       0      r0     0.0621
   1090 H           15.2784    18.4286   -15.8203 H       0      r0     0.1137
   1091 H           15.4350    17.2356   -14.4632 H       0      r0     0.1265
   1092 C          -13.4033     7.1571    -6.9410 C       6      r6     0.1301
   1093 C          -14.7362     7.4955    -6.3361 C       6      r6    -0.0028
   1094 C          -15.7363     6.5908    -6.3005 C       6      r6     0.0162
   1095 C          -15.4522     5.4008    -7.1159 C       6      r6     0.0039
   1096 C          -14.1003     4.3514    -9.0014 C       5      r5     0.1514
   1097 O          -12.7770     4.5170    -9.1951 O       5      r5    -0.5119
   1098 C          -12.5643     5.9901    -9.2192 C       5      r5     0.1420
   1099 C          -13.7100     6.6389    -8.4874 C       5      r5     0.0248
   1100 C          -14.8260     5.5424    -8.4448 C       5      r5     0.0123
   1101 C          -11.6327     6.6632    -9.8347 C       0      r0     0.0054
   1102 C          -12.6318     8.4963    -6.9687 C       0      r0    -0.0021
   1103 C          -15.9907     4.1471    -6.7067 C       0      r0     0.0006
   1104 C          -14.8857     3.3095    -9.5571 C       0      r0    -0.0005
   1105 O          -12.6487     6.0904    -6.4034 O       0      r0    -0.5723
   1106 C          -11.6657    10.3126    -9.6482 C       5      r5     0.1031
   1107 C          -10.3232     9.9776   -10.0365 C       5      r5    -0.0219
   1108 C          -10.2523     8.6003   -10.3074 C       5      r5    -0.0080
   1109 C          -11.5181     8.1361    -9.9708 C       5      r5     0.1230
   1110 O          -12.5625     9.0676    -9.7833 O       5      r5    -0.4907
   1111 O          -17.0736     4.5103    -9.5741 O       0      r0    -0.5831
   1112 C          -16.2736     3.4305    -9.8460 C       0      r0     0.1450
   1113 C          -16.5621     2.2544   -10.4715 C       0      r0    -0.0154
   1114 C          -17.9543     1.9754   -10.9594 C       0      r0    -0.0275
   1115 C           18.2339     2.8803   -11.0651 C       0      r0    -0.0110
   1116 O          -10.6325     9.1425    -5.8855 O       0      r0    -0.4587
   1117 C          -10.3429     8.5573    -2.9691 C       0      r0     0.1977
   1118 C          -11.6701     8.1908    -3.1951 C       0      r0     0.0038
   1119 C          -12.2859     8.2200    -4.5011 C       0      r0     0.0217
   1120 C          -11.6982     8.6347    -5.6889 C       0      r0     0.1908
   1121 C          -16.8282     3.9221    -5.6386 C       5      r5     0.1347
   1122 C          -17.1802     2.5598    -5.3855 C       5      r5    -0.0170
   1123 C          -17.9679     2.4138    -4.2407 C       5      r5    -0.0491
   1124 C          -18.0462     3.8085    -3.8531 C       5      r5     0.0956
   1125 O          -17.3190     4.8873    -4.7192 O       5      r5    -0.4809
   1126 C           18.4722     3.8878    -2.8041 C       0      r0    -0.0359
   1127 C          -13.2977    11.6595    -9.8720 C       3      r3    -0.0020
   1128 H          -14.9255     8.4062    -5.8565 H       0      r0     0.0684
   1129 H          -16.6464     6.7075    -5.7615 H       0      r0     0.1172
   1130 H          -13.9133     7.6056    -9.0369 H       0      r0     0.0881
   1131 H          -15.6206     5.8823    -9.1126 H       0      r0     0.0975
   1132 H          -10.7960     6.1191   -10.3203 H       0      r0     0.0771
   1133 H          -11.7974     8.5542    -7.6582 H       0      r0     0.1176
   1134 H          -13.2473     9.3353    -7.2600 H       0      r0     0.0538
   1135 H          -17.6987     4.5921   -10.4058 H       0      r0     0.2913
   1136 H          -15.7285     3.3447    -7.3764 H       0      r0     0.0791
   1137 H          -14.3412     2.4370    -9.8315 H       0      r0     0.0525
   1138 H           -9.4183    10.5856   -10.1586 H       0      r0     0.0585
   1139 H           -9.3586     8.0423   -10.5280 H       0      r0     0.0760
   1140 H          -15.8146     1.5320   -10.6235 H       0      r0     0.0574
   1141 H          -18.1355     0.9758   -11.4021 H       0      r0     0.0752
   1142 H          -12.3048     7.8376    -2.3895 H       0      r0     0.0630
   1143 H          -13.2723     7.8358    -4.6559 H       0      r0     0.0949
   1144 H          -16.8857     1.7086    -5.9917 H       0      r0     0.1100
   1145 H          -18.4075     1.5132    -3.8077 H       0      r0     0.0271
   1146 H           17.9022     3.0855    -2.4524 H       0      r0     0.0420
   1147 H           18.2052     4.8105    -2.3690 H       0      r0     0.0814
   1148 H          -14.9386    17.4140   -12.0025 H       0      r0     0.3112
   1149 H          -11.7745    13.9339   -10.4536 H       0      r0     0.2396
   1150 C            7.2853    -3.5597   -11.3762 C       0      r0     0.2191
   1151 C            7.4311    -4.8730   -12.0594 C       0      r0     0.0145
   1152 C            7.4710    -4.9439   -13.3793 C       0      r0     0.0091
   1153 C            7.0299    -3.8588   -14.2693 C       0      r0     0.1975
   1154 C            6.9219    -4.2350   -15.8128 C       0      r0     0.0024
   1155 O            6.7781    -2.7437   -14.0075 O       0      r0    -0.4957
   1156 O            6.7561    -3.4775   -10.3469 O       0      r0    -0.5016
   1157 C            8.0436    -5.2472   -16.1538 C       5      r5     0.1261
   1158 C            7.7178    -6.0420   -17.2236 C       5      r5    -0.0186
   1159 C            8.7540    -6.9473   -17.3464 C       5      r5    -0.0186
   1160 C            9.7551    -6.5862   -16.3597 C       5      r5     0.1104
   1161 O            9.2034    -5.4186   -15.4160 O       5      r5    -0.4628
   1162 C           10.8549    -7.1650   -16.2177 C       0      r0    -0.0099
   1163 C            8.1345    -2.3522   -11.9375 C       0      r0     0.0414
   1164 C           10.4377    -2.8824    -7.5991 C       0      r0     0.1171
   1165 C           10.5346    -2.4280    -8.8210 C       0      r0    -0.0034
   1166 C            9.2957    -2.3150    -9.8350 C       0      r0     0.0233
   1167 C            9.3850    -2.2604   -11.0398 C       0      r0     0.1346
   1168 O           10.6563    -2.2137   -11.8462 O       0      r0    -0.5106
   1169 H            7.5976    -5.7227   -11.4661 H       0      r0     0.0828
   1170 H            7.6115    -5.8915   -13.8417 H       0      r0     0.0900
   1171 H            5.9023    -4.6111   -16.0677 H       0      r0     0.0867
   1172 H            6.8697    -3.3545   -16.4482 H       0      r0     0.0916
   1173 H            6.8626    -6.0146   -17.8557 H       0      r0     0.1030
   1174 H            8.9448    -7.6861   -18.1044 H       0      r0     0.0602
   1175 H           10.9743    -8.1000   -16.7803 H       0      r0     0.0542
   1176 H           11.6620    -6.9245   -15.4550 H       0      r0     0.0917
   1177 H            8.4533    -2.4722   -12.9966 H       0      r0     0.1190
   1178 H            7.5561    -1.4013   -11.9075 H       0      r0     0.1363
   1179 H           11.5070    -2.0996    -9.2277 H       0      r0     0.0649
   1180 H            8.3189    -2.3935    -9.3317 H       0      r0     0.1209
   1181 C           15.1682     3.5253     5.9719 C       0      r0     0.1968
   1182 C           15.6840     3.2570     4.6175 C       0      r0     0.0175
   1183 C           15.2020     3.7967     3.4979 C       0      r0     0.0098
   1184 C           14.0826     4.7280     3.4811 C       0      r0     0.2041
   1185 C           13.6118     5.1187     2.0275 C       0      r0    -0.0088
   1186 O           13.4726     5.2008     4.3603 O       0      r0    -0.4313
   1187 O           14.2177     4.1050     6.3056 O       0      r0    -0.4242
   1188 C           13.9356     3.9502     1.0458 C       5      r5     0.1304
   1189 C           14.8012     4.2856     0.0239 C       5      r5    -0.0234
   1190 C           15.1532     3.1023    -0.5696 C       5      r5    -0.0134
   1191 C           14.5550     1.9985     0.1739 C       5      r5     0.0844
   1192 O           13.5948     2.6713     1.3079 O       5      r5    -0.4664
   1193 C           14.7474     0.7158    -0.0881 C       0      r0    -0.0455
   1194 C           16.1426     3.1995     7.1458 C       0      r0    -0.0019
   1195 C           18.5175    -0.2136     6.1680 C       0      r0     0.1789
   1196 C           17.9525    -0.2058     7.3768 C       0      r0    -0.0128
   1197 C           17.2364     0.9954     7.6367 C       0      r0    -0.0258
   1198 C           17.2069     2.1697     6.7520 C       0      r0     0.1595
   1199 O           17.8957     2.4982     5.8650 O       0      r0    -0.4713
   1200 H           16.4954     2.5508     4.4261 H       0      r0     0.1041
   1201 H           15.6315     3.5110     2.5979 H       0      r0     0.0654
   1202 H           12.5262     5.4120     1.9242 H       0      r0     0.0688
   1203 H           14.0228     6.0345     1.6658 H       0      r0     0.0423
   1204 H           15.1481     5.3339    -0.1814 H       0      r0     0.0473
   1205 H           15.7171     2.9390    -1.4365 H       0      r0     0.0729
   1206 H           15.5264     0.4281    -0.8000 H       0      r0     0.0434
   1207 H           14.2489    -0.0199     0.4948 H       0      r0     0.0723
   1208 H           16.6587     4.1244     7.4943 H       0      r0     0.0685
   1209 H           15.5489     2.8146     7.9074 H       0      r0     0.0465
   1210 H           18.0155    -1.0926     8.0237 H       0      r0     0.0857
   1211 H           16.6218     1.1519     8.5807 H       0      r0     0.0976
   1212 C           -1.5332    15.9264    -3.4306 C       5      r5     0.1255
   1213 O           -0.7809    17.1264    -2.7720 O       5      r5    -0.4778
   1214 C            0.0234    16.2986    -1.9117 C       5      r5     0.1117
   1215 C           -0.2447    14.9169    -2.0143 C       5      r5    -0.0276
   1216 C           -1.2304    14.6470    -2.9461 C       5      r5    -0.0161
   1217 C           -2.3547    16.1610    -4.5607 C       0      r0     0.0248
   1218 C            1.2941    18.0686    -0.6353 C       5      r5     0.1422
   1219 O            2.2389    18.4309     0.2364 O       5      r5    -0.4718
   1220 C            1.8952   -17.9904     0.1397 C       5      r5     0.1084
   1221 C            0.7672   -17.7213    -0.6902 C       5      r5    -0.0301
   1222 C            0.4526   -18.9886    -1.2484 C       5      r5    -0.0099
   1223 C            0.9789    16.7017    -0.9671 C       0      r0    -0.0049
   1224 C           -3.1414    15.1299    -5.1270 C       5      r5     0.0929
   1225 C           -3.7018    15.6611    -6.1977 C       5      r5    -0.0222
   1226 C           -4.5400    14.5278    -6.6725 C       5      r5    -0.0299
   1227 C           -4.2242    13.4348    -5.8680 C       5      r5     0.0949
   1228 O           -3.3577    13.5597    -4.5102 O       5      r5    -0.4824
   1229 C           -4.8528    12.4058    -6.2678 C       0      r0    -0.0365
   1230 H            0.3018    14.1394    -1.4272 H       0      r0     0.0564
   1231 H           -1.5786    13.6611    -3.2715 H       0      r0     0.0842
   1232 H           -2.2870    17.1487    -4.9208 H       0      r0     0.1195
   1233 H            0.2422   -16.8163    -0.7173 H       0      r0     0.0444
   1234 H           -0.4158    18.7862    -1.9446 H       0      r0     0.1238
   1235 H            1.4783    15.9228    -0.4267 H       0      r0     0.0755
   1236 H           -3.5485    16.6278    -6.6206 H       0      r0     0.1218
   1237 H           -5.2209    14.5769    -7.4992 H       0      r0     0.0678
   1238 H           -5.4613    12.3354    -7.1185 H       0      r0     0.0760
   1239 H           -4.7568    11.5789    -5.5852 H       0      r0     0.0522
   1240 C            4.0327    17.4458   -16.4211 C       5      r5     0.1527
   1241 O            5.1373    18.2043   -16.7261 O       5      r5    -0.4803
   1242 C            5.0342   -18.9164   -15.4225 C       5      r5     0.0929
   1243 C            4.0727    18.7294   -14.4708 C       5      r5    -0.0224
   1244 C            3.4392    17.6639   -15.0990 C       5      r5     0.0239
   1245 C            3.5335    16.5089   -17.3361 C       0      r0     0.0118
   1246 C            5.7471   -16.9717   -13.9938 C       0      r0     0.1544
   1247 O            6.6724   -16.7150   -13.1899 O       0      r0    -0.5310
   1248 C            4.7423   -14.9610   -11.9990 C       0      r0     0.0133
   1249 C            3.9567   -15.5223   -13.0360 C       0      r0    -0.0298
   1250 C            4.4709   -16.4803   -13.9567 C       0      r0    -0.0221
   1251 C            5.8941   -17.9150   -15.1773 C       0      r0    -0.0026
   1252 C            2.4426    15.6578   -16.9693 C       5      r5     0.1573
   1253 C            2.1596    14.6230   -17.8831 C       5      r5    -0.0109
   1254 C            1.0537    13.8353   -17.4717 C       5      r5    -0.0158
   1255 C            0.7443    14.5447   -16.2782 C       5      r5     0.1264
   1256 O            1.6940    15.7594   -15.8525 O       5      r5    -0.4436
   1257 C           -0.2537    14.0278   -15.7161 C       0      r0    -0.0271
   1258 H            3.9026   -18.8762   -13.5194 H       0      r0     0.0697
   1259 H            2.7149    17.0918   -14.6131 H       0      r0     0.1368
   1260 H            4.0566    16.3336   -18.2479 H       0      r0     0.0476
   1261 H            2.8947   -15.2449   -13.0730 H       0      r0     0.0725
   1262 H            3.7401   -16.7656   -14.7084 H       0      r0     0.0422
   1263 H            6.7394   -17.6946   -15.7947 H       0      r0     0.0769
   1264 H            2.7369    14.4546   -18.7549 H       0      r0     0.0396
   1265 H            0.5353    13.0323   -17.8848 H       0      r0     0.0447
   1266 H           -0.8143    13.1786   -16.1407 H       0      r0     0.0387
   1267 H           -0.6565    14.4524   -14.8238 H       0      r0     0.0722
   1268 C           10.5653    -6.6638   -11.5548 C       5      r5     0.1117
   1269 O           10.1773    -5.2876   -11.1023 O       5      r5    -0.4744
   1270 C           10.9507    -4.5860   -12.1507 C       5      r5     0.1438
   1271 C           11.7568    -5.3300   -13.1184 C       5      r5    -0.0338
   1272 C           11.4304    -6.5995   -12.7150 C       5      r5    -0.0275
   1273 C           10.3361    -7.8500   -10.9889 C       0      r0    -0.0198
   1274 C           11.1097    -3.3326   -12.4293 C       0      r0     0.1487
   1275 H           12.3702    -5.0216   -13.9506 H       0      r0     0.0661
   1276 H           11.7592    -7.5383   -13.1912 H       0      r0     0.0403
   1277 H           10.3705    -8.8990   -10.9302 H       0      r0     0.0694
   1278 H           11.7153    -3.0104   -13.2512 H       0      r0     0.0883
   1279 C            0.8587     2.7042     6.3562 C       5      r5     0.1482
   1280 O            2.2244     3.1607     6.7770 O       5      r5    -0.4626
   1281 C            1.9567     3.3532     8.1459 C       5      r5     0.1329
   1282 C            0.6571     3.1408     8.6305 C       5      r5    -0.0243
   1283 C           -0.0451     2.7495     7.5471 C       5      r5     0.0180
   1284 C            0.3799     2.2872     5.1652 C       0      r0     0.0029
   1285 C            2.9941     3.7283     9.0884 C       0      r0    -0.0261
   1286 H            0.3023     3.1897     9.7070 H       0      r0     0.0476
   1287 H           -1.0819     2.5246     7.5124 H       0      r0     0.0952
   1288 H           -0.3580     1.9620     4.4708 H       0      r0     0.0493
   1289 H            2.6684     3.7691    10.1034 H       0      r0     0.0324
   1290 C           10.1117    -4.4053     3.8993 C       0      r0     0.1005
   1291 O            9.2314    -5.5869     4.7530 O       0      r0    -0.4503
   1292 C            7.8574    -4.7067     4.3714 C       0      r0     0.0886
   1293 C            7.9517    -3.4501     3.5932 C       0      r0    -0.0369
   1294 C            9.3177    -3.2889     3.2873 C       0      r0    -0.0232
   1295 C           11.3486    -4.2030     3.7959 C       0      r0    -0.0133
   1296 C            6.6206    -4.9356     4.8410 C       0      r0    -0.0390
   1297 H            7.1865    -2.8122     3.1739 H       0      r0     0.0644
   1298 H            9.7244    -2.3940     2.7645 H       0      r0     0.0972
   1299 H           12.4123    -4.0475     3.7506 H       0      r0     0.0559
   1300 H            5.5774    -4.8258     5.0323 H       0      r0     0.0409
   1301 C            6.5184    -0.2778     4.5561 C       0      r0     0.0982
   1302 O            5.2753    -0.5616     3.4793 O       0      r0    -0.4574
   1303 C            4.4065     0.6225     4.3586 C       0      r0     0.0942
   1304 C            5.1428     1.2872     5.4513 C       0      r0    -0.0312
   1305 C            6.4200     0.7390     5.6201 C       0      r0    -0.0425
   1306 C            7.7172    -0.7928     4.4029 C       0      r0    -0.0247
   1307 C            3.1514     0.8565     4.3736 C       0      r0    -0.0072
   1308 H            4.7782     2.1906     5.9953 H       0      r0     0.0706
   1309 H            7.1706     1.0177     6.4076 H       0      r0     0.0564
   1310 H            8.7130    -1.0241     4.3750 H       0      r0     0.0576
   1311 H            2.1110     1.1333     4.4736 H       0      r0     0.0657
   1312 C            5.5402     7.9014   -10.9295 C       5      r5     0.0716
   1313 C            4.1894     7.4571   -10.4595 C       5      r5    -0.0379
   1314 C            3.7465     8.5791    -9.9652 C       5      r5    -0.0245
   1315 C            4.8733     9.6651    -9.9097 C       5      r5     0.1429
   1316 C            7.0075     9.7471    -8.4363 C       5      r5     0.1665
   1317 O            8.1282     9.4485    -9.1963 O       5      r5    -0.4576
   1318 C            7.8660     8.1549    -9.7324 C       5      r5     0.1359
   1319 C            6.4129     7.7694    -9.6154 C       5      r5    -0.0113
   1320 C            5.7741     8.9786    -8.8201 C       5      r5     0.0240
   1321 C            8.8131     7.4313   -10.3618 C       0      r0     0.0123
   1322 C            6.0109     6.9081   -12.0984 C       0      r0    -0.0141
   1323 C            4.2303    11.1090    -9.4675 C       0      r0     0.0053
   1324 C            6.9789    10.6792    -7.4358 C       0      r0     0.0338
   1325 O            5.6227     9.5764   -11.0636 O       5      r5    -0.4669
   1326 C            9.0809     4.3399   -12.2984 C       5      r5     0.1124
   1327 C            8.1261     4.0040   -11.3051 C       5      r5    -0.0295
   1328 C            7.9760     5.0990   -10.4144 C       5      r5    -0.0443
   1329 C            8.7708     6.0746   -10.9452 C       5      r5     0.1169
   1330 O            9.6273     5.8160   -12.0438 O       5      r5    -0.4549
   1331 O            4.6268    10.1954    -6.6629 O       5      r5    -0.4845
   1332 C            5.8551    10.8730    -6.5281 C       5      r5     0.1425
   1333 C            6.1286    11.6910    -5.4197 C       5      r5     0.0026
   1334 C            4.9351    11.8008    -4.7850 C       5      r5    -0.0229
   1335 C            3.9359    10.9860    -5.4658 C       5      r5     0.1092
   1336 O            5.1992     6.1025   -14.3848 O       5      r5    -0.4686
   1337 C            4.3433     7.0379   -15.4040 C       5      r5     0.0904
   1338 C            4.0960     8.3548   -14.7943 C       5      r5    -0.0224
   1339 C            4.7332     8.3679   -13.5748 C       5      r5    -0.0013
   1340 C            5.2627     7.0895   -13.4496 C       5      r5     0.1634
   1341 C            3.1079    11.5718   -10.3945 C       5      r5     0.1539
   1342 C            1.8242    11.0440   -10.1733 C       5      r5    -0.0210
   1343 C            1.0569    11.4459   -11.1786 C       5      r5    -0.0288
   1344 C            1.8436    12.2783   -12.1576 C       5      r5     0.0694
   1345 O            3.3962    12.3836   -11.3950 O       5      r5    -0.4408
   1346 C            4.0609     6.6888   -16.5352 C       0      r0    -0.0255
   1347 C            2.6989    10.8574    -5.1178 C       0      r0    -0.0373
   1348 H            3.6492     6.5535   -10.5902 H       0      r0     0.0631
   1349 H            2.7589     8.6778    -9.4980 H       0      r0     0.0454
   1350 H            6.2977     6.7731    -9.2112 H       0      r0     0.0151
   1351 H            5.1080     8.8167    -7.9944 H       0      r0     0.0931
   1352 H            9.7277     8.0205   -10.3331 H       0      r0     0.0961
   1353 H            7.1007     6.9796   -12.3050 H       0      r0     0.1176
   1354 H            6.0150     5.8009   -11.7858 H       0      r0     0.0456
   1355 H            3.8769    10.8970    -8.4234 H       0      r0     0.0806
   1356 H            5.0569    11.8766    -9.4247 H       0      r0     0.1461
   1357 H            7.8298    11.2749    -7.2313 H       0      r0     0.1014
   1358 H            7.5893     3.0642   -11.2664 H       0      r0     0.0515
   1359 H            7.3089     5.2451    -9.6108 H       0      r0     0.0223
   1360 H            7.0439    12.1862    -5.0480 H       0      r0     0.1026
   1361 H            4.6691    12.4563    -3.9818 H       0      r0     0.0324
   1362 H            3.6523     9.2446   -15.2385 H       0      r0     0.1100
   1363 H            4.7478     9.1206   -12.7531 H       0      r0     0.1217
   1364 H            1.4744    10.4733    -9.2979 H       0      r0     0.0760
   1365 H            0.0641    11.1530   -11.2969 H       0      r0     0.0582
   1366 H            3.4490     7.2856   -17.2119 H       0      r0     0.0920
   1367 H            4.3400     5.6756   -16.9173 H       0      r0     0.0553
   1368 H            2.2935    11.4336    -4.2991 H       0      r0     0.0446
   1369 H            2.0805    10.1492    -5.6440 H       0      r0     0.0737
   1370 C           -0.5808     7.9928   -14.9423 C       5      r5     0.1292
   1371 C           -1.3040     7.5503   -13.7452 C       5      r5    -0.0217
   1372 C           -2.5093     7.1266   -13.9621 C       5      r5    -0.0434
   1373 C           -2.5083     7.3966   -15.4261 C       5      r5     0.0680
   1374 C           -2.8715     9.5194   -16.9474 C       5      r5     0.1355
   1375 O           -1.6190     9.9519   -17.5481 O       5      r5    -0.4845
   1376 C           -0.7086     9.9606   -16.5309 C       5      r5     0.1548
   1377 C           -1.1638     9.4011   -15.2129 C       5      r5     0.0031
   1378 C           -2.6434     8.9360   -15.5719 C       5      r5     0.0108
   1379 C            0.5862    10.4794   -16.6409 C       0      r0     0.0023
   1380 C            1.0301     8.0181   -14.6161 C       0      r0    -0.0173
   1381 C           -3.5197     6.6892   -16.2392 C       0      r0     0.0141
   1382 C           -4.0759     9.6275   -17.5681 C       0      r0     0.0001
   1383 O           -0.9223     7.2267   -15.9958 O       5      r5    -0.4635
   1384 C            3.1129    11.4771   -14.2923 C       5      r5     0.1335
   1385 C            1.8871    11.7109   -13.5559 C       5      r5     0.0142
   1386 C            0.7539    11.3660   -14.4271 C       5      r5    -0.0358
   1387 C            1.3857    10.9464   -15.5192 C       5      r5     0.1045
   1388 O            2.8196    10.9102   -15.6907 O       5      r5    -0.4868
   1389 O           -5.4374     8.5295   -15.8297 O       5      r5    -0.5175
   1390 C           -5.3194     9.1251   -17.0393 C       5      r5     0.1325
   1391 C           -6.4746     9.4018   -17.7620 C       5      r5     0.0040
   1392 C           -7.6656     8.9969   -17.0539 C       5      r5    -0.0056
   1393 C           -7.0172     8.4291   -15.9286 C       5      r5     0.0951
   1394 O            1.3412     6.8803   -12.3564 O       5      r5    -0.4678
   1395 C            1.2582     5.3382   -12.0730 C       5      r5     0.0941
   1396 C            1.4846     4.6641   -13.3630 C       5      r5    -0.0104
   1397 C            1.5146     5.5968   -14.3619 C       5      r5    -0.0035
   1398 C            1.3263     6.8182   -13.7351 C       5      r5     0.1446
   1399 C           -3.1622     5.1853   -16.5762 C       0      r0     0.2023
   1400 C           -2.0185     4.6744   -15.9118 C       0      r0     0.0267
   1401 C           -1.6520     3.3136   -15.8713 C       0      r0     0.0015
   1402 C           -2.4525     2.4345   -16.5766 C       0      r0     0.1641
   1403 O           -3.9752     4.5990   -17.1886 O       0      r0    -0.4548
   1404 C            0.9869     4.7543   -10.9546 C       0      r0    -0.0180
   1405 C           -7.9019     7.9869   -15.1178 C       0      r0    -0.0265
   1406 H           -0.8328     7.6827   -12.7982 H       0      r0     0.0712
   1407 H           -3.2451     6.8091   -13.2507 H       0      r0     0.0579
   1408 H           -1.0275     9.9224   -14.2989 H       0      r0     0.0458
   1409 H           -3.4420     9.3441   -14.9990 H       0      r0     0.0645
   1410 H            1.0195    10.7200   -17.6575 H       0      r0     0.0728
   1411 H            1.3278     8.0881   -15.6667 H       0      r0     0.0682
   1412 H            1.3209     8.9479   -14.1587 H       0      r0     0.0572
   1413 H           -4.5117     6.8938   -15.8401 H       0      r0     0.1184
   1414 H           -3.6451     7.3110   -17.0709 H       0      r0     0.0832
   1415 H           -3.9674    10.1155   -18.5123 H       0      r0     0.0917
   1416 H            1.4778    13.2716   -12.2509 H       0      r0     0.0859
   1417 H           -0.2979    11.4170   -14.2043 H       0      r0     0.0837
   1418 H           -6.5248     9.7746   -18.7430 H       0      r0     0.1022
   1419 H           -8.6723     9.2209   -17.3065 H       0      r0     0.1086
   1420 H            1.5686     3.5693   -13.6064 H       0      r0     0.1134
   1421 H            1.6520     5.4473   -15.4197 H       0      r0     0.0596
   1422 H           -1.4662     5.3947   -15.3598 H       0      r0     0.1113
   1423 H           -0.7433     2.9886   -15.4069 H       0      r0     0.0577
   1424 H            0.7310     3.7141   -10.9501 H       0      r0     0.0650
   1425 H            0.9059     5.3233   -10.0416 H       0      r0     0.1090
   1426 H           -8.9747     8.0344   -15.3009 H       0      r0     0.1266
   1427 H           -7.5737     7.5948   -14.1890 H       0      r0     0.0708
   1428 C            7.5084    11.4437   -14.2322 C       6      r6     0.0579
   1429 C            6.1292    11.9737   -14.2685 C       6      r6    -0.0346
   1430 C            5.7779    13.0488   -13.4306 C       6      r6    -0.0149
   1431 C            6.6749    13.1687   -12.3286 C       6      r6     0.0004
   1432 C            8.7217    12.3893   -11.0822 C       5      r5     0.1704
   1433 O            9.7669    11.8801   -11.7070 O       5      r5    -0.5298
   1434 C            9.2530    10.7299   -12.4452 C       5      r5     0.1434
   1435 C            7.7767    10.8673   -12.8404 C       5      r5     0.0194
   1436 C            7.4130    11.9868   -11.7965 C       5      r5     0.0272
   1437 C           10.0404     9.7686   -12.9526 C       0      r0     0.0054
   1438 C            7.4945    10.4149   -15.3507 C       0      r0     0.0040
   1439 C            6.5903    14.4473   -11.9130 C       0      r0    -0.0264
   1440 C            8.7129    13.1759    -9.9560 C       0      r0     0.0080
   1441 O            8.8671    12.5807   -14.4134 O       0      r0    -0.5773
   1442 C            8.8301     6.9169   -14.7927 C       5      r5     0.1347
   1443 C           10.3169     6.8039   -14.7925 C       5      r5     0.0072
   1444 C           10.8041     7.8566   -14.1068 C       5      r5     0.0001
   1445 C            9.6785     8.5465   -13.6511 C       5      r5     0.1503
   1446 O            8.3645     8.0827   -13.8275 O       5      r5    -0.4773
   1447 O            6.3197    13.3395    -9.2841 O       0      r0    -0.5801
   1448 C            7.6427    13.6295    -9.1512 C       0      r0     0.1376
   1449 C            8.3190    14.3544    -8.1868 C       0      r0    -0.0316
   1450 C            7.6278    15.0226    -7.0743 C       0      r0    -0.0177
   1451 C            6.2351    14.8645    -6.8485 C       0      r0     0.0044
   1452 O            7.8706    10.0278   -17.6697 O       0      r0    -0.4373
   1453 C            8.0815    12.1569    18.5033 C       0      r0     0.1899
   1454 C            7.8252    12.8389   -18.2972 C       0      r0    -0.0146
   1455 C            7.7259    12.2523   -16.9546 C       0      r0     0.0055
   1456 C            7.7219    10.9451   -16.7942 C       0      r0     0.1823
   1457 C            5.6104    15.4626   -12.2702 C       3      r3    -0.0198
   1458 C            5.3852    16.7086   -12.8269 C       3      r3    -0.0457
   1459 C            5.2369    17.8096   -10.9439 C       0      r0     0.0162
   1460 C            6.4160    18.8391   -11.1635 C       0      r0     0.1349
   1461 O            6.3516   -17.8151   -10.8747 O       0      r0    -0.5560
   1462 C            7.4615    18.4088   -11.6225 C       0      r0    -0.0336
   1463 C            8.1305     6.1415   -15.4325 C       0      r0    -0.0055
   1464 H            5.4292    11.6396   -15.0559 H       0      r0     0.0602
   1465 H            4.9402    13.7613   -13.6291 H       0      r0     0.0798
   1466 H            7.2634     9.8534   -12.8333 H       0      r0     0.1172
   1467 H            6.5721    11.6412   -11.1629 H       0      r0     0.1412
   1468 H           11.0629    10.0181   -12.6713 H       0      r0     0.0565
   1469 H            8.2499     9.6139   -15.1537 H       0      r0     0.1291
   1470 H            6.6000     9.7886   -15.3624 H       0      r0     0.0673
   1471 H            5.7958    14.1537    -9.0192 H       0      r0     0.2667
   1472 H            7.2722    14.6254   -11.0880 H       0      r0     0.0622
   1473 H            9.6745    13.2929    -9.5448 H       0      r0     0.0626
   1474 H           10.9957     6.0856   -15.2983 H       0      r0     0.0744
   1475 H           11.8613     8.1647   -13.9516 H       0      r0     0.0435
   1476 H            9.3778    14.4685    -8.2492 H       0      r0     0.0470
   1477 H            8.2565    15.4872    -6.2943 H       0      r0     0.1172
   1478 H            7.7960    13.8889   -18.5429 H       0      r0     0.0432
   1479 H            7.5274    12.9042   -16.1078 H       0      r0     0.0807
   1480 H            5.8804    17.4848   -13.4193 H       0      r0     0.0496
   1481 H           -1.1346    16.4314    -8.5167 H       0      r0     0.3222
   1482 H            7.6602    17.3723   -11.8461 H       0      r0     0.0216
   1483 H            8.3813   -19.0111   -11.7795 H       0      r0     0.0584
   1484 H            8.5566     5.2591   -15.9744 H       0      r0     0.0352
   1485 H            7.0922     6.2242   -15.5309 H       0      r0     0.1138
   1486 C           -0.0337    15.9745   -10.1332 C       6      r6     0.0907
   1487 C           -0.1982    14.8989   -11.1997 C       6      r6    -0.0438
   1488 C           -0.9466    13.7776   -11.0218 C       6      r6    -0.0502
   1489 C           -1.1089    13.5612    -9.6310 C       6      r6    -0.0300
   1490 C           -0.3279    14.0614    -7.1723 C       5      r5     0.1215
   1491 O           -0.0895    15.5438    -6.8976 O       5      r5    -0.4858
   1492 C            0.8675    15.9980    -7.7485 C       5      r5     0.1440
   1493 C            0.8072    15.2668    -9.0579 C       5      r5     0.0035
   1494 C            0.0575    13.8992    -8.6643 C       5      r5    -0.0036
   1495 C            1.7394    17.0121    -7.5026 C       0      r0     0.0007
   1496 C            0.6537    17.2039   -10.6292 C       0      r0     0.0101
   1497 C           -2.3440    12.8269    -9.1158 C       0      r0    -0.0169
   1498 C           -0.5600    13.1340    -6.4144 C       0      r0     0.0043
   1499 O           -1.2653    16.6032    -9.4810 O       0      r0    -0.5943
   1500 C            4.3106    17.7587    -9.8821 C       5      r5     0.1534
   1501 C            4.4410    18.8090    -8.8946 C       5      r5     0.0104
   1502 C            3.4663    18.6365    -7.8949 C       5      r5    -0.0153
   1503 C            2.8058    17.5108    -8.3415 C       5      r5     0.1180
   1504 O            3.2071    16.8989    -9.5854 O       5      r5    -0.5013
   1505 O           -0.1945    11.1064    -7.7398 O       0      r0    -0.4800
   1506 C           -0.8035    11.6364    -6.9063 C       0      r0     0.1734
   1507 C           -1.7443    10.9502    -5.9917 C       0      r0    -0.0158
   1508 C           -2.3237     9.7421    -6.2827 C       0      r0    -0.0315
   1509 C           -2.0437     8.8873    -7.4064 C       0      r0     0.0142
   1510 O            0.7435    18.6779   -12.5043 O       0      r0    -0.4586
   1511 C           -1.2811    18.7092   -14.3313 C       0      r0     0.2157
   1512 C           -1.9481    18.0114   -13.2956 C       0      r0    -0.0213
   1513 C           -1.2493    17.5195   -12.1804 C       0      r0    -0.0093
   1514 C            0.1023    17.8675   -11.9235 C       0      r0     0.1788
   1515 C           -3.6687    13.6359    -9.5728 C       5      r5     0.1454
   1516 C           -3.5121    14.9186   -10.0650 C       5      r5    -0.0175
   1517 C           -4.7726    15.3330   -10.3962 C       5      r5    -0.0366
   1518 C           -5.6825    14.2065   -10.0415 C       5      r5     0.0894
   1519 O           -4.8318    13.0591    -9.3617 O       5      r5    -0.4698
   1520 C           -6.8921    14.3004   -10.1704 C       0      r0    -0.0467
   1521 C            4.8714    16.5054   -11.5339 C       3      r3     0.0207
   1522 H            0.0048    15.2040   -12.2433 H       0      r0     0.0550
   1523 H           -1.3153    13.1677   -11.7910 H       0      r0     0.1085
   1524 H            1.7927    15.2945    -9.5942 H       0      r0     0.0887
   1525 H            0.6557    12.9956    -8.7441 H       0      r0     0.0834
   1526 H            1.5129    17.5971    -6.6073 H       0      r0     0.0772
   1527 H            0.6917    17.8419    -9.7264 H       0      r0     0.0741
   1528 H            1.7281    17.1607   -10.7201 H       0      r0     0.1262
   1529 H           -2.4251    11.7767    -9.5005 H       0      r0     0.0802
   1530 H           -2.2216    12.7334    -7.9623 H       0      r0     0.0782
   1531 H           -0.6253    13.4437    -5.4036 H       0      r0     0.0735
   1532 H            5.1284   -18.4390    -8.9790 H       0      r0     0.1198
   1533 H            3.2154   -18.8180    -6.9876 H       0      r0     0.0756
   1534 H           -1.9913    11.5158    -5.1220 H       0      r0     0.0665
   1535 H           -3.0033     9.3788    -5.5615 H       0      r0     0.0472
   1536 H           -2.9516    17.6974   -13.3547 H       0      r0     0.0455
   1537 H           -1.7545    16.8380   -11.4726 H       0      r0     0.0885
   1538 H           -2.5527    15.4183   -10.1665 H       0      r0     0.1138
   1539 H           -4.9828    16.2776   -10.8754 H       0      r0     0.0678
   1540 H           -7.2831    15.2416   -10.5656 H       0      r0     0.0381
   1541 H           -7.5509    13.5048    -9.9506 H       0      r0     0.0595
   1542 H            9.3954    12.4963   -13.5057 H       0      r0     0.2972
   1543 H            6.3190   -17.2395   -11.7959 H       0      r0     0.3529
   1544 C           -7.5025    13.4355     0.8804 C       0      r0     0.1881
   1545 C           -8.5547    12.7527     1.6078 C       0      r0     0.0020
   1546 C           -9.7391    12.3428     1.0455 C       0      r0    -0.0293
   1547 C          -10.1385    12.1911    -0.2596 C       0      r0     0.1441
   1548 C          -11.6246    11.8030    -0.3701 C       0      r0    -0.0081
   1549 O           -9.4539    12.5626    -1.3049 O       0      r0    -0.4842
   1550 O           -6.4061    13.4042     1.2893 O       0      r0    -0.4831
   1551 C          -11.7752    10.2933     0.0720 C       5      r5     0.1441
   1552 C          -10.6479     9.5285    -0.0474 C       5      r5    -0.0047
   1553 C          -11.0548     8.2549     0.3112 C       5      r5    -0.0288
   1554 C          -12.4479     8.3010     0.7218 C       5      r5     0.0721
   1555 O          -12.9618     9.8505     0.5394 O       5      r5    -0.4741
   1556 C          -13.0749     7.3062     1.1529 C       0      r0    -0.0686
   1557 C           -7.6826    14.3578    -0.3235 C       0      r0     0.0459
   1558 C           -4.2441    13.6230    -3.1740 C       0      r0     0.1168
   1559 C           -4.5048    12.8686    -2.0965 C       0      r0    -0.0472
   1560 C           -5.6234    13.1000    -1.1871 C       0      r0    -0.0081
   1561 C           -6.6165    14.1067    -1.4132 C       0      r0     0.1961
   1562 O           -6.7493    14.8662    -2.3123 O       0      r0    -0.4954
   1563 H           -8.4793    12.5719     2.6753 H       0      r0     0.0839
   1564 H          -10.5896    11.9689     1.6757 H       0      r0     0.0435
   1565 H          -12.2206    12.5380     0.1557 H       0      r0     0.0537
   1566 H          -11.8655    12.0866    -1.3909 H       0      r0     0.0825
   1567 H           -9.6457     9.9103    -0.3233 H       0      r0     0.0899
   1568 H          -10.4441     7.4212     0.3212 H       0      r0     0.0543
   1569 H          -12.7087     6.2910     1.2781 H       0      r0     0.0363
   1570 H          -14.1159     7.4997     1.4829 H       0      r0     0.0382
   1571 H           -8.6524    14.5064    -0.6971 H       0      r0     0.1023
   1572 H           -7.5655    15.3851     0.0792 H       0      r0     0.0847
   1573 H           -3.9199    11.9869    -1.9729 H       0      r0     0.0274
   1574 H           -5.7209    12.3891    -0.4035 H       0      r0     0.0838
   1575 C           -0.0526    -1.8204   -12.3612 C       0      r0     0.1858
   1576 C            0.6819    -0.6909   -12.8139 C       0      r0    -0.0040
   1577 C            2.0502    -0.4441   -12.6470 C       0      r0    -0.0097
   1578 C            3.0768    -1.1581   -12.0075 C       0      r0     0.1641
   1579 C            4.4352    -0.6616   -12.3978 C       0      r0     0.0078
   1580 O            3.0169    -2.2082   -11.2875 O       0      r0    -0.4915
   1581 O           -1.2409    -1.7905   -12.3392 O       0      r0    -0.4971
   1582 C            5.2883    -0.1622   -11.2410 C       5      r5     0.1591
   1583 C            4.6584    -0.2491    -9.9710 C       5      r5     0.0043
   1584 C            5.6480     0.2119    -9.1319 C       5      r5    -0.0062
   1585 C            6.8497     0.5440    -9.9141 C       5      r5     0.0915
   1586 O            6.5168     0.2430   -11.4854 O       5      r5    -0.4910
   1587 C            7.9026     0.9647    -9.4594 C       0      r0    -0.0294
   1588 C            0.4791    -3.2489   -12.1197 C       0      r0     0.0431
   1589 C           -1.9142    -5.3438   -15.7365 C       0      r0     0.1430
   1590 C           -1.7019    -5.2203   -14.4032 C       0      r0    -0.0033
   1591 C           -0.7357    -4.1991   -13.8762 C       0      r0    -0.0064
   1592 C           -0.3883    -4.3101   -12.6339 C       0      r0     0.1635
   1593 O           -0.6731    -5.2167   -11.6718 O       0      r0    -0.5200
   1594 H            0.0620     0.1428   -13.1569 H       0      r0     0.0628
   1595 H            2.2312     0.4778   -13.2880 H       0      r0     0.1054
   1596 H            4.9742    -1.4373   -12.8923 H       0      r0     0.1136
   1597 H            4.3784     0.0012   -13.3114 H       0      r0     0.0532
   1598 H            3.6796    -0.6510    -9.6524 H       0      r0     0.1057
   1599 H            5.5826     0.3367    -8.0841 H       0      r0     0.0908
   1600 H            8.1278     1.1549    -8.3646 H       0      r0     0.1228
   1601 H            8.7585     1.0694   -10.0217 H       0      r0     0.0549
   1602 H            1.4397    -3.1998   -12.8458 H       0      r0     0.1315
   1603 H            0.8913    -3.4592   -11.1402 H       0      r0     0.1029
   1604 H           -2.0182    -5.9485   -13.6179 H       0      r0     0.1370
   1605 H           -0.3617    -3.3968   -14.5495 H       0      r0     0.0635
   1606 C          -11.9590   -15.4865     4.6764 C       5      r5     0.1364
   1607 O          -10.7589   -15.0488     3.9319 O       5      r5    -0.4796
   1608 C          -11.2828   -15.3235     2.5785 C       5      r5     0.1199
   1609 C          -12.6191   -15.8132     2.6242 C       5      r5    -0.0039
   1610 C          -13.0163   -15.9806     3.9565 C       5      r5     0.0148
   1611 C          -11.9879   -15.3924     6.1454 C       0      r0    -0.0027
   1612 C           -9.2773   -14.6810     1.2408 C       5      r5     0.1535
   1613 O           -8.8232   -14.3521     0.0307 O       5      r5    -0.4646
   1614 C           -7.2989   -13.9405     0.5983 C       5      r5     0.1034
   1615 C           -7.2608   -13.8690     2.0233 C       5      r5    -0.0330
   1616 C           -8.4805   -14.4095     2.4220 C       5      r5    -0.0111
   1617 C          -10.6313   -15.1329     1.3804 C       0      r0     0.0111
   1618 C          -13.1814   -15.6752     6.7942 C       5      r5     0.1204
   1619 C          -12.7552   -15.7056     8.1626 C       5      r5    -0.0353
   1620 C          -13.9885   -15.9854     8.7606 C       5      r5    -0.0217
   1621 C          -15.0517   -16.1119     7.7437 C       5      r5     0.0972
   1622 O          -14.4556   -15.9725     6.2977 O       5      r5    -0.4745
   1623 C          -16.2023   -16.3762     8.0469 C       0      r0    -0.0420
   1624 H          -13.1996   -16.0029     1.7664 H       0      r0     0.0861
   1625 H          -13.9599   -16.3985     4.3210 H       0      r0     0.1206
   1626 H          -11.1065   -15.1395     6.6679 H       0      r0     0.0698
   1627 H           -6.4159   -13.4487     2.6512 H       0      r0     0.0430
   1628 H           -8.6864   -14.5407     3.4803 H       0      r0     0.0842
   1629 H          -11.0586   -15.3014     0.4255 H       0      r0     0.0689
   1630 H          -11.7658   -15.6202     8.6185 H       0      r0     0.0523
   1631 H          -14.1156   -15.9888     9.8379 H       0      r0     0.0688
   1632 H          -16.4865   -16.5396     9.1063 H       0      r0     0.0634
   1633 H          -16.9196   -16.4380     7.2638 H       0      r0     0.0563
   1634 C           15.6077    -6.2022     5.3706 C       5      r5     0.1473
   1635 O           15.8311    -4.8155     5.5363 O       5      r5    -0.4719
   1636 C           17.1986    -5.0680     6.3707 C       5      r5     0.0908
   1637 C           17.6412    -6.3669     6.4537 C       5      r5    -0.0408
   1638 C           16.5851    -7.0986     5.8906 C       5      r5    -0.0087
   1639 C           14.4353    -6.6861     4.7634 C       0      r0     0.0243
   1640 C          -18.1246    -4.1222     7.6133 C       5      r5     0.1296
   1641 O          -17.3458    -3.0234     7.7563 O       5      r5    -0.4644
   1642 C          -16.2245    -3.8866     8.6507 C       5      r5     0.0681
   1643 C          -16.6284    -5.1984     8.9896 C       5      r5    -0.0524
   1644 C          -17.8894    -5.2917     8.3620 C       5      r5    -0.0434
   1645 C           17.9423    -3.9744     6.8321 C       0      r0     0.0220
   1646 C           14.0663    -8.0535     4.6118 C       5      r5     0.1284
   1647 C           12.7666    -8.3201     4.1196 C       5      r5    -0.0279
   1648 C           12.6424    -9.6615     4.1873 C       5      r5    -0.0329
   1649 C           13.8502   -10.3116     4.7788 C       5      r5     0.0855
   1650 O           14.8729    -9.1261     5.0090 O       5      r5    -0.4876
   1651 C           14.0181   -11.4760     5.0594 C       0      r0    -0.0399
   1652 H           18.6082    -6.7098     6.8774 H       0      r0     0.0421
   1653 H           16.5706    -8.1923     5.8817 H       0      r0     0.0928
   1654 H           13.6541    -5.9793     4.4943 H       0      r0     0.0754
   1655 H          -16.0826    -5.9442     9.4735 H       0      r0     0.0389
   1656 H          -18.5717    -6.1191     8.3727 H       0      r0     0.0271
   1657 H           17.6401    -2.9704     6.5556 H       0      r0     0.1127
   1658 H           11.9968    -7.6852     3.7310 H       0      r0     0.0523
   1659 H           11.7972   -10.2920     3.8798 H       0      r0     0.0458
   1660 H           13.2631   -12.1692     4.8208 H       0      r0     0.0476
   1661 H           14.9671   -11.8670     5.5043 H       0      r0     0.0619
   1662 C           -1.3582     4.1552     4.0358 C       5      r5     0.1582
   1663 O           -1.6446     4.4072     5.4149 O       5      r5    -0.4573
   1664 C           -2.8702     3.4480     5.3775 C       5      r5     0.1017
   1665 C           -3.0261     2.8309     4.0876 C       5      r5    -0.0425
   1666 C           -2.1212     3.3016     3.1601 C       5      r5    -0.0538
   1667 C           -0.3773     4.6236     3.2256 C       0      r0     0.1664
   1668 C           -3.8245     3.2582     6.2750 C       0      r0    -0.0248
   1669 H           -3.8253     2.0730     3.9830 H       0      r0     0.0451
   1670 H           -1.8808     2.8968     2.1542 H       0      r0     0.0714
   1671 H           -0.3175     4.3070     2.1930 H       0      r0     0.1105
   1672 H           -4.7194     2.8545     6.7174 H       0      r0     0.0772
   1673 C           -7.8428    -9.4018    -9.1787 C       5      r5     0.1108
   1674 O           -7.0506    -8.2492    -9.9494 O       5      r5    -0.4422
   1675 C           -8.2092    -7.4695   -10.2398 C       5      r5     0.1503
   1676 C           -9.4818    -7.9261    -9.8313 C       5      r5    -0.0133
   1677 C           -9.2477    -9.0742    -9.1823 C       5      r5    -0.0156
   1678 C           -7.3685   -10.6038    -8.7766 C       0      r0    -0.0309
   1679 C           -8.3434    -6.1595   -10.8336 C       0      r0    -0.0105
   1680 H          -10.4581    -7.4729    -9.9696 H       0      r0     0.0495
   1681 H           -9.9922    -9.7906    -8.6663 H       0      r0     0.0546
   1682 H           -7.6388   -11.5638    -8.3602 H       0      r0     0.0537
   1683 H           -9.3722    -5.7524   -11.0837 H       0      r0     0.0528
   1684 C           -3.8006    -4.4809    -8.3247 C       5      r5     0.1200
   1685 O           -2.8308    -5.6336    -8.5446 O       5      r5    -0.4862
   1686 C           -2.1409    -5.0684    -9.7497 C       5      r5     0.1405
   1687 C           -2.7290    -3.7408   -10.1444 C       5      r5    -0.0117
   1688 C           -3.7820    -3.4495    -9.3683 C       5      r5    -0.0294
   1689 C           -4.6643    -4.3665    -7.3029 C       0      r0    -0.0132
   1690 C           -1.2814    -5.6205   -10.4067 C       0      r0     0.1521
   1691 H           -2.3683    -3.1027   -10.8937 H       0      r0     0.1096
   1692 H           -4.4097    -2.5993    -9.4108 H       0      r0     0.0943
   1693 H           -5.4138    -4.0408    -6.5673 H       0      r0     0.0505
   1694 H           -0.9001    -6.5204    -9.9601 H       0      r0     0.1331
   1695 C            4.1901   -15.5519    -7.8338 C       5      r5     0.1306
   1696 O            3.9246   -15.4897    -9.2173 O       5      r5    -0.4595
   1697 C            5.2060   -14.7314    -9.6111 C       5      r5     0.1288
   1698 C            6.0661   -14.4575    -8.5858 C       5      r5    -0.0215
   1699 C            5.4177   -14.9060    -7.4309 C       5      r5    -0.0200
   1700 C            3.3847   -16.1174    -6.8445 C       0      r0    -0.0071
   1701 C            5.5515   -14.4133   -10.9692 C       0      r0    -0.0086
   1702 H            7.0617   -14.0069    -8.6113 H       0      r0     0.0473
   1703 H            5.8529   -14.7908    -6.4651 H       0      r0     0.0409
   1704 H            3.6730   -16.0441    -5.8193 H       0      r0     0.0754
   1705 H            6.4334   -13.8687   -11.1663 H       0      r0     0.0553
   1706 C          -18.3683    -4.6261    -0.8677 C       5      r5     0.0866
   1707 C           17.9107    -5.6605    -1.3060 C       5      r5    -0.0344
   1708 C           18.4350    -6.7110    -0.6800 C       5      r5    -0.0130
   1709 C          -17.3807    -6.3818    -0.1678 C       5      r5     0.1350
   1710 C          -15.1525    -5.7023    -1.2870 C       5      r5     0.1698
   1711 O          -15.0840    -4.3454    -1.4090 O       5      r5    -0.4894
   1712 C          -16.1736    -3.9011    -2.0688 C       5      r5     0.1975
   1713 C          -17.2744    -4.9218    -1.9791 C       5      r5     0.0365
   1714 C          -16.5746    -6.1715    -1.4686 C       5      r5     0.0293
   1715 C          -16.4424    -2.6608    -2.6607 C       0      r0     0.0351
   1716 C           18.1284    -3.2089    -0.7393 C       0      r0    -0.0061
   1717 C          -16.7283    -7.5270     0.7817 C       0      r0     0.0005
   1718 C          -14.1187    -6.5802    -1.0991 C       0      r0     0.0342
   1719 O          -17.4315    -5.0960     0.4303 O       5      r5    -0.4812
   1720 C           17.0689    -0.9055    -4.0728 C       0      r0     0.1248
   1721 C           18.3126    -0.5928    -4.4073 C       0      r0    -0.0307
   1722 C          -17.6900    -1.1443    -3.6510 C       0      r0    -0.0311
   1723 C          -17.7210    -2.3387    -3.2486 C       0      r0     0.1141
   1724 O           18.3908    -3.3046    -3.5606 O       0      r0    -0.5009
   1725 O          -15.4439    -8.6755    -1.5639 O       5      r5    -0.4841
   1726 C          -14.2190    -8.0089    -1.2912 C       5      r5     0.1321
   1727 C          -13.0868    -8.7804    -1.1012 C       5      r5    -0.0161
   1728 C          -13.4971   -10.0731    -1.3669 C       5      r5    -0.0079
   1729 C          -14.9195   -10.2339    -1.6835 C       5      r5     0.0944
   1730 O           16.3154    -2.2345     0.7784 O       5      r5    -0.4739
   1731 C           15.9638    -2.7532     2.2733 C       5      r5     0.0972
   1732 C           16.8503    -3.8366     2.6120 C       5      r5    -0.0107
   1733 C           17.6100    -4.1212     1.4692 C       5      r5     0.0074
   1734 C           17.2939    -3.1681     0.5669 C       5      r5     0.1439
   1735 C          -17.9078    -8.1636     1.5374 C       5      r5     0.1365
   1736 C          -18.2053    -9.5159     1.2443 C       5      r5    -0.0242
   1737 C           17.8968    -9.7754     1.8758 C       5      r5    -0.0268
   1738 C           17.4029    -8.5026     2.5070 C       5      r5     0.0762
   1739 O          -18.5620    -7.4710     2.4735 O       5      r5    -0.4595
   1740 C           15.0202    -2.2797     3.0149 C       0      r0    -0.0333
   1741 C          -15.5687   -11.2394    -1.8324 C       0      r0    -0.0345
   1742 H           16.9952    -5.6505    -1.8073 H       0      r0     0.0587
   1743 H           18.0015    -7.7119    -0.6825 H       0      r0     0.0704
   1744 H          -17.7733    -4.9176    -2.9729 H       0      r0     0.1109
   1745 H          -16.6559    -7.1347    -2.1089 H       0      r0     0.1044
   1746 H          -15.6687    -1.8981    -2.5573 H       0      r0     0.1224
   1747 H          -18.3174    -2.4215    -0.8747 H       0      r0     0.0920
   1748 H           17.5192    -3.0267    -1.6882 H       0      r0     0.0941
   1749 H          -16.1655    -8.1574     0.0601 H       0      r0     0.1000
   1750 H          -15.9028    -7.2739     1.4100 H       0      r0     0.1088
   1751 H          -13.1846    -6.1061    -0.8388 H       0      r0     0.1142
   1752 H           18.3786     0.1356    -5.1946 H       0      r0     0.0340
   1753 H          -16.7909    -0.6015    -3.5387 H       0      r0     0.0501
   1754 H          -12.1688    -8.4217    -0.7380 H       0      r0     0.0603
   1755 H          -12.8052   -10.9013    -1.2432 H       0      r0     0.1002
   1756 H           16.8385    -4.3148     3.5606 H       0      r0     0.1012
   1757 H           18.3615    -4.9630     1.4736 H       0      r0     0.1511
   1758 H          -17.6527   -10.1823     0.6446 H       0      r0     0.0711
   1759 H           17.3669   -10.7377     1.7887 H       0      r0     0.0674
   1760 H           14.7982    -2.6608     4.0013 H       0      r0     0.0743
   1761 H           14.4511    -1.4596     2.6168 H       0      r0     0.0596
   1762 H          -15.1065   -12.2645    -1.6751 H       0      r0     0.0402
   1763 H          -16.5833   -11.2943    -2.1943 H       0      r0     0.0796
   1764 C           13.8416   -11.3772    -0.6110 C       5      r5     0.0645
   1765 C           14.5889   -12.6329    -0.3622 C       5      r5    -0.0362
   1766 C           13.5715   -13.4316    -0.4948 C       5      r5    -0.0238
   1767 C           12.2235   -12.7499    -0.6969 C       5      r5     0.1222
   1768 C           10.6495   -11.4614     0.7613 C       5      r5     0.1568
   1769 O           10.7245   -10.1146     0.4664 O       5      r5    -0.4650
   1770 C           12.1908    -9.8386     0.6472 C       5      r5     0.1201
   1771 C           13.1118   -11.0190     0.7653 C       5      r5    -0.0184
   1772 C           11.9950   -12.1805     0.6825 C       5      r5     0.0257
   1773 C           12.7070    -8.5918     0.6494 C       0      r0     0.0016
   1774 C           14.6384   -10.2937    -1.2340 C       0      r0    -0.0064
   1775 C           11.0464   -13.7128    -1.0411 C       0      r0    -0.0080
   1776 C            9.5014   -12.1510     1.0312 C       0      r0     0.0057
   1777 O           12.4665   -11.6858    -1.5785 O       5      r5    -0.4847
   1778 C           15.7825    -6.6907     1.4705 C       0      r0     0.1151
   1779 C           16.0460    -8.0198     1.8736 C       0      r0     0.0155
   1780 C           14.8963    -8.8900     1.6906 C       0      r0    -0.0298
   1781 C           13.9994    -8.1335     1.0642 C       0      r0     0.0804
   1782 O           14.2531    -6.4740     0.7943 O       0      r0    -0.4594
   1783 O           10.5152   -14.3468     1.5659 O       5      r5    -0.4866
   1784 C            9.3991   -13.5189     1.4055 C       5      r5     0.1167
   1785 C            8.1203   -14.0923     1.6119 C       5      r5    -0.0249
   1786 C            8.2118   -15.4740     1.9577 C       5      r5    -0.0393
   1787 C            9.6253   -15.6029     1.9353 C       5      r5     0.1050
   1788 O           16.3557    -9.7857    -2.9375 O       5      r5    -0.4463
   1789 C           16.6632   -10.5398    -4.3597 C       5      r5     0.1057
   1790 C           15.8975   -11.7585    -4.3875 C       5      r5    -0.0157
   1791 C           15.0841   -11.7862    -3.2580 C       5      r5    -0.0183
   1792 C           15.4165   -10.6815    -2.5426 C       5      r5     0.1478
   1793 C           11.2968   -14.6562    -2.2188 C       0      r0     0.1359
   1794 C           12.1551   -14.1988    -3.1731 C       0      r0    -0.0248
   1795 C           12.5952   -14.9391    -4.2846 C       0      r0    -0.0450
   1796 C           12.1436   -16.2077    -4.6602 C       0      r0    -0.0027
   1797 O           10.6992   -15.8406    -2.2126 O       0      r0    -0.5028
   1798 C           17.4498   -10.2177    -5.3700 C       0      r0    -0.0282
   1799 C            9.8992   -16.8611     2.2389 C       0      r0    -0.0384
   1800 H           15.6120   -12.8785    -0.2064 H       0      r0     0.0612
   1801 H           13.7218   -14.4959    -0.5758 H       0      r0     0.0421
   1802 H           13.8053   -11.1067     1.5711 H       0      r0     0.0348
   1803 H           12.1068   -12.8962     1.4515 H       0      r0     0.0952
   1804 H           11.8609    -8.0293     0.2228 H       0      r0     0.1057
   1805 H           14.1408    -9.3358    -1.3614 H       0      r0     0.0714
   1806 H           15.3071   -10.3037    -0.3888 H       0      r0     0.0525
   1807 H           10.8882   -14.4958    -0.2760 H       0      r0     0.1328
   1808 H           10.0499   -13.3443    -1.2349 H       0      r0     0.0548
   1809 H            8.5597   -11.6217     0.9847 H       0      r0     0.0959
   1810 H           17.1766    -8.6677     3.5820 H       0      r0     0.0917
   1811 H           14.7236    -9.9210     1.8882 H       0      r0     0.0366
   1812 H            7.1583   -13.6869     1.4250 H       0      r0     0.0561
   1813 H            7.4119   -16.1231     2.1887 H       0      r0     0.0404
   1814 H           15.8865   -12.6224    -5.0955 H       0      r0     0.1009
   1815 H           14.3298   -12.5579    -2.9918 H       0      r0     0.0575
   1816 H           12.5098   -13.1784    -2.9946 H       0      r0     0.0815
   1817 H           13.3856   -14.6865    -5.0416 H       0      r0     0.0506
   1818 H           17.5505   -10.9810    -6.1460 H       0      r0     0.0625
   1819 H           17.9860    -9.2966    -5.4404 H       0      r0     0.0715
   1820 H            9.0584   -17.5180     2.3370 H       0      r0     0.0446
   1821 H           10.8852   -17.1954     2.3142 H       0      r0     0.0822
   1822 C          -15.8028    -2.2231     3.2430 C       6      r6     0.1186
   1823 C          -16.6913    -3.2715     3.9003 C       6      r6     0.0002
   1824 C          -16.3707    -4.6165     3.9916 C       6      r6    -0.0205
   1825 C          -15.2334    -5.1078     3.2703 C       6      r6    -0.0115
   1826 C          -13.3654    -4.1526     1.8066 C       5      r5     0.1534
   1827 O          -13.0306    -2.8713     1.5700 O       5      r5    -0.5257
   1828 C          -14.2364    -2.1654     1.2927 C       5      r5     0.1559
   1829 C          -15.3970    -2.9017     1.8876 C       5      r5     0.0234
   1830 C          -14.8570    -4.4172     1.9929 C       5      r5     0.0119
   1831 C          -14.4923    -1.0310     0.6266 C       0      r0     0.0110
   1832 C          -16.5806    -0.8946     3.1529 C       0      r0     0.0222
   1833 C          -14.8400    -6.1993     3.9657 C       0      r0    -0.0168
   1834 C          -12.4513    -5.1810     1.8817 C       0      r0     0.0128
   1835 O          -14.5809    -1.9114     3.9966 O       0      r0    -0.5746
   1836 C          -17.7388    -0.0491    -0.4463 C       5      r5     0.1057
   1837 C          -17.0248     1.0446    -1.0432 C       5      r5    -0.0237
   1838 C          -15.7398     0.7202    -0.5468 C       5      r5    -0.0002
   1839 C          -15.7438    -0.4134     0.2646 C       5      r5     0.1270
   1840 O          -16.9492    -1.0528     0.4603 O       5      r5    -0.4944
   1841 O          -13.8752    -7.1924     1.6144 O       0      r0    -0.6110
   1842 C          -12.7149    -6.5795     1.8641 C       0      r0     0.1399
   1843 C          -11.4726    -7.0905     2.0738 C       0      r0    -0.0269
   1844 C          -11.2134    -8.5750     2.1186 C       0      r0    -0.0413
   1845 C          -12.1625    -9.5262     2.2302 C       0      r0    -0.0200
   1846 O          -18.0247    -0.3312     4.9000 O       0      r0    -0.4842
   1847 C          -14.8681     2.2640     6.4422 C       0      r0     0.2140
   1848 C          -16.0277     1.4844     5.8161 C       0      r0    -0.0058
   1849 C          -15.7508     0.5251     4.8267 C       0      r0    -0.0032
   1850 C          -16.8416    -0.2605     4.4109 C       0      r0     0.1756
   1851 C          -15.2003    -6.5677     5.3331 C       3      r3    -0.0230
   1852 C          -14.6810    -6.2907     6.5754 C       3      r3    -0.0425
   1853 C          -13.6618    -8.1650     6.9454 C       0      r0     0.0263
   1854 C          -12.6177    -7.6111     8.0445 C       0      r0     0.1360
   1855 O          -11.3025    -7.5645     7.6154 O       0      r0    -0.5671
   1856 C          -13.0208    -7.1827     9.1113 C       0      r0    -0.0114
   1857 C           18.2929    -0.0022    -0.8273 C       0      r0    -0.0425
   1858 H          -17.5780    -2.8102     4.2799 H       0      r0     0.0934
   1859 H          -16.9696    -5.2448     4.5523 H       0      r0     0.0753
   1860 H          -16.2595    -2.9614     1.2095 H       0      r0     0.1269
   1861 H          -15.1292    -5.1207     1.1507 H       0      r0     0.1256
   1862 H          -13.6018    -0.5888     0.1931 H       0      r0     0.0699
   1863 H          -16.0867    -0.1638     2.4178 H       0      r0     0.0632
   1864 H          -17.5447    -0.9985     2.6737 H       0      r0     0.1073
   1865 H          -13.7842    -8.1869     1.6218 H       0      r0     0.2566
   1866 H          -13.9999    -6.6712     3.5104 H       0      r0     0.1112
   1867 H          -11.4312    -4.9039     1.9178 H       0      r0     0.0934
   1868 H          -17.3800     1.8348    -1.7182 H       0      r0     0.0511
   1869 H          -14.8802     1.2698    -0.7370 H       0      r0     0.0973
   1870 H          -10.6311    -6.4811     2.3200 H       0      r0     0.0878
   1871 H          -10.1222    -8.8471     2.2320 H       0      r0     0.0595
   1872 H          -17.0379     1.5771     6.2220 H       0      r0     0.1059
   1873 H          -14.7858     0.4202     4.3951 H       0      r0     0.0795
   1874 H          -14.0557    -5.5440     7.1171 H       0      r0     0.0559
   1875 H          -17.5739   -13.7468     5.4830 H       0      r0     0.3159
   1876 H          -14.0973    -7.2529     9.4600 H       0      r0     0.0601
   1877 H          -12.3978    -6.6965     9.8411 H       0      r0     0.0922
   1878 H           17.9296     0.7199    -1.5239 H       0      r0     0.0285
   1879 H           17.5473    -0.7039    -0.4511 H       0      r0     0.0916
   1880 C          -18.0006   -11.8473     5.6212 C       6      r6     0.1309
   1881 C           18.0544   -10.9743     5.2080 C       6      r6    -0.0256
   1882 C           17.3483   -11.2657     4.1129 C       6      r6    -0.0524
   1883 C           18.0408   -12.2745     3.4339 C       6      r6    -0.0279
   1884 C          -17.1354   -13.5070     2.7504 C       5      r5     0.1363
   1885 O          -16.2846   -14.0257     3.7361 O       5      r5    -0.4824
   1886 C          -15.9616   -12.8441     4.5157 C       5      r5     0.1337
   1887 C          -16.9639   -11.7266     4.4349 C       5      r5    -0.0032
   1888 C          -17.7539   -12.2094     3.1065 C       5      r5    -0.0110
   1889 C          -14.8470   -12.7162     5.2993 C       0      r0     0.0068
   1890 C          -17.4522   -11.0537     6.8709 C       0      r0     0.0168
   1891 C           17.1335   -13.2249     2.6117 C       0      r0    -0.0129
   1892 C          -17.4018   -14.1993     1.5873 C       0      r0     0.0021
   1893 O          -18.1784   -13.1878     6.0074 O       0      r0    -0.6063
   1894 C          -13.8100    -9.5051     6.6109 C       5      r5     0.1376
   1895 C          -12.8313   -10.4222     7.1157 C       5      r5    -0.0086
   1896 C          -13.1168   -11.7032     6.6670 C       5      r5    -0.0321
   1897 C          -14.2886   -11.5195     5.8986 C       5      r5     0.1200
   1898 O          -14.8427   -10.2178     5.7494 O       5      r5    -0.4797
   1899 O           18.5084   -12.4771     0.4029 O       5      r5    -0.4914
   1900 C          -18.0928   -13.7036     0.4511 C       5      r5     0.1167
   1901 C          -18.1197   -14.4780    -0.7518 C       5      r5    -0.0140
   1902 C           18.4407   -13.8201    -1.7669 C       5      r5     0.0018
   1903 C           18.0000   -12.6361    -1.1479 C       5      r5     0.1048
   1904 O           18.1460    -9.9380     8.4476 O       0      r0    -0.4869
   1905 C           16.7601   -11.8537    10.0699 C       0      r0     0.1766
   1906 C           17.8354   -12.6636     9.7329 C       0      r0     0.0051
   1907 C          -18.5657   -12.3381     8.5146 C       0      r0     0.0319
   1908 C          -18.4982   -11.1496     7.9823 C       0      r0     0.1748
   1909 C           16.0345   -13.7665     3.5824 C       5      r5     0.1511
   1910 C           16.3390   -13.9237     4.9322 C       5      r5    -0.0196
   1911 C           15.2352   -14.4371     5.6599 C       5      r5    -0.0426
   1912 C           14.2845   -14.4989     4.6059 C       5      r5     0.0736
   1913 O           14.8884   -14.0160     3.0667 O       5      r5    -0.4672
   1914 C           13.1610   -14.8842     5.0331 C       0      r0    -0.0471
   1915 C          -14.8720    -7.6570     6.2729 C       3      r3     0.0124
   1916 H           17.7056   -10.1656     5.8227 H       0      r0     0.0738
   1917 H           16.3271   -10.9062     3.7916 H       0      r0     0.0661
   1918 H          -16.5398   -10.7369     4.3533 H       0      r0     0.0766
   1919 H          -17.6178   -11.5722     2.2270 H       0      r0     0.0697
   1920 H          -14.2153   -13.5513     5.4287 H       0      r0     0.0859
   1921 H          -16.4638   -11.4531     7.1267 H       0      r0     0.0909
   1922 H          -17.3096    -9.9687     6.7156 H       0      r0     0.0917
   1923 H           16.7395   -12.7840     1.6737 H       0      r0     0.0937
   1924 H           17.6497   -14.0543     2.0743 H       0      r0     0.0874
   1925 H          -16.8862   -15.2213     1.4851 H       0      r0     0.0661
   1926 H          -12.0024   -10.0862     7.7391 H       0      r0     0.0696
   1927 H          -12.5779   -12.5832     6.7780 H       0      r0     0.0408
   1928 H          -17.6445   -15.4260    -0.9287 H       0      r0     0.0577
   1929 H           18.3212   -14.1880    -2.7656 H       0      r0     0.1153
   1930 H           17.9373   -13.4685    10.4024 H       0      r0     0.0639
   1931 H          -17.8612   -13.0489     8.0997 H       0      r0     0.0980
   1932 H           17.3667   -13.5719     5.3973 H       0      r0     0.1229
   1933 H           15.0972   -14.6869     6.7170 H       0      r0     0.0572
   1934 H           13.0250   -15.1968     6.0502 H       0      r0     0.0451
   1935 H           12.3215   -14.9796     4.3808 H       0      r0     0.0719
   1936 H          -13.8438    -2.4249     3.5645 H       0      r0     0.2900
   1937 H          -10.9302    -6.7608     8.1271 H       0      r0     0.3004
   1938 C            6.4362   -16.4526     6.3187 C       0      r0     0.2071
   1939 C            7.7954   -16.6651     5.7386 C       0      r0    -0.0086
   1940 C            8.1276   -17.6862     4.8235 C       0      r0    -0.0394
   1941 C            7.2171   -18.7058     4.5061 C       0      r0     0.1572
   1942 C            7.8793    18.3372     3.5788 C       0      r0     0.0004
   1943 O            6.0537   -18.9070     4.9501 O       0      r0    -0.4592
   1944 O            6.1529   -16.3143     7.4382 O       0      r0    -0.4855
   1945 C            7.2385    18.3047     2.1904 C       5      r5     0.1543
   1946 C            5.9520    18.7992     2.0148 C       5      r5     0.0026
   1947 C            5.7737    18.6356     0.6484 C       5      r5    -0.0085
   1948 C            6.9507    17.9576     0.0845 C       5      r5     0.1044
   1949 O            8.0373    17.7678     1.3022 O       5      r5    -0.4861
   1950 C            7.1607    17.5792    -1.0533 C       0      r0    -0.0067
   1951 C            5.2870   -16.3151     5.2752 C       0      r0     0.0266
   1952 C            3.9594   -12.2646     6.5729 C       0      r0     0.1419
   1953 C            3.4087   -13.4596     7.0355 C       0      r0    -0.0152
   1954 C            3.7967   -14.7542     6.5327 C       0      r0    -0.0108
   1955 C            4.7211   -14.8864     5.4334 C       0      r0     0.1735
   1956 O            5.2159   -14.0497     4.7519 O       0      r0    -0.5007
   1957 H            8.6420   -16.0324     5.9685 H       0      r0     0.0786
   1958 H            9.0813   -17.6526     4.3644 H       0      r0     0.0312
   1959 H            8.9703    18.4043     3.5199 H       0      r0     0.0446
   1960 H            7.9255    17.3034     4.0252 H       0      r0     0.0742
   1961 H            5.2759   -18.7740     2.6940 H       0      r0     0.0997
   1962 H            4.8316    18.8463     0.0805 H       0      r0     0.0817
   1963 H            6.4231    17.8210    -1.8948 H       0      r0     0.0806
   1964 H            8.0447    16.9834    -1.3237 H       0      r0     0.0755
   1965 H            5.6810   -16.4791     4.2631 H       0      r0     0.0697
   1966 H            4.5311   -17.0985     5.3947 H       0      r0     0.1167
   1967 H            2.5983   -13.2270     7.6881 H       0      r0     0.0599
   1968 H            3.5434   -15.6620     7.0806 H       0      r0     0.0597
   1969 C           13.9285   -15.9380   -15.2718 C       0      r0     0.1833
   1970 C           15.1667   -15.8354   -14.4070 C       0      r0    -0.0108
   1971 C           16.3469   -15.6463   -14.8980 C       0      r0    -0.0197
   1972 C           16.6698   -15.2539   -16.2948 C       0      r0     0.1805
   1973 C           18.2293   -15.0329   -16.4919 C       0      r0    -0.0119
   1974 O           16.0014   -15.1164   -17.2297 O       0      r0    -0.5040
   1975 O           12.8932   -15.4888   -14.9604 O       0      r0    -0.4768
   1976 C          -18.0821   -15.2533   -15.3125 C       5      r5     0.1259
   1977 C          -17.1427   -14.2903   -15.0217 C       5      r5    -0.0182
   1978 C          -16.4497   -14.8082   -13.9314 C       5      r5    -0.0115
   1979 C          -16.8379   -16.1788   -13.6497 C       5      r5     0.0964
   1980 O          -18.1420   -16.4202   -14.6527 O       5      r5    -0.4738
   1981 C          -16.3157   -16.9337   -12.8647 C       0      r0    -0.0092
   1982 C           13.9924   -16.9206   -16.4514 C       0      r0     0.0182
   1983 C           11.2303    17.8270   -16.5897 C       0      r0     0.1908
   1984 C           10.7812   -18.8338   -16.5567 C       0      r0    -0.0086
   1985 C           11.6762   -17.8018   -16.3533 C       0      r0    -0.0051
   1986 C           13.0411   -18.1280   -16.2558 C       0      r0     0.1868
   1987 O           13.4858    18.7966   -16.3757 O       0      r0    -0.4656
   1988 H           15.0779   -16.1026   -13.3538 H       0      r0     0.1091
   1989 H           17.2181   -15.7690   -14.2619 H       0      r0     0.0993
   1990 H           18.4330   -15.8347   -17.2612 H       0      r0     0.0655
   1991 H           18.3580   -14.0385   -16.9392 H       0      r0     0.0550
   1992 H          -16.9882   -13.3912   -15.5510 H       0      r0     0.0529
   1993 H          -15.6671   -14.3732   -13.3454 H       0      r0     0.0484
   1994 H          -15.5273   -16.6724   -12.1781 H       0      r0     0.0659
   1995 H          -16.5868   -17.9981   -12.8560 H       0      r0     0.0862
   1996 H           13.6411   -16.5140   -17.4539 H       0      r0     0.0686
   1997 H           14.9549   -17.1930   -16.7393 H       0      r0     0.0849
   1998 H            9.6955   -18.7014   -16.5515 H       0      r0     0.0575
   1999 H           11.3164   -16.7880   -16.2918 H       0      r0     0.0715
   2000 C            9.4096   -15.5149    -9.0912 C       5      r5     0.1537
   2001 O           10.1223   -14.4649    -9.6526 O       5      r5    -0.4775
   2002 C            9.4518   -14.5181   -11.0318 C       5      r5     0.1073
   2003 C            8.5266   -15.5613   -11.2240 C       5      r5    -0.0193
   2004 C            8.5016   -16.1651    -9.9620 C       5      r5     0.0142
   2005 C            9.4792   -15.6683    -7.6927 C       0      r0     0.0225
   2006 C            9.3677   -13.6462   -13.4305 C       5      r5     0.1440
   2007 O            9.3335   -12.4902   -14.2021 O       5      r5    -0.4296
   2008 C            9.0698   -13.3072   -15.6228 C       5      r5     0.1045
   2009 C            8.9600   -14.6949   -15.4470 C       5      r5    -0.0203
   2010 C            9.1225   -14.8796   -14.0470 C       5      r5    -0.0091
   2011 C            9.7159   -13.5952   -12.0389 C       0      r0     0.0250
   2012 C            8.7309   -16.5819    -6.9290 C       5      r5     0.1312
   2013 C            8.7543   -16.5375    -5.4924 C       5      r5    -0.0319
   2014 C            7.7801   -17.3583    -4.9142 C       5      r5    -0.0263
   2015 C            7.2353   -17.9316    -6.1292 C       5      r5     0.1065
   2016 O            7.8987   -17.5270    -7.5195 O       5      r5    -0.4509
   2017 C            6.3211   -18.7580    -5.8202 C       0      r0    -0.0135
   2018 H            7.8958   -15.7830   -12.0740 H       0      r0     0.1114
   2019 H            7.8928   -17.0512    -9.7597 H       0      r0     0.1512
   2020 H           10.1125   -15.0243    -7.0309 H       0      r0     0.0624
   2021 H            8.9348   -15.4470   -16.2436 H       0      r0     0.0583
   2022 H            9.1742   -15.8782   -13.6675 H       0      r0     0.0613
   2023 H           10.3646   -12.7932   -11.7056 H       0      r0     0.1021
   2024 H            9.4107   -15.9376    -4.8729 H       0      r0     0.0522
   2025 H            7.5660   -17.4294    -3.8254 H       0      r0     0.1153
   2026 H            5.9697   -18.9153    -4.8362 H       0      r0     0.0864
   2027 H            5.8250    18.7484    -6.6123 H       0      r0     0.0802
   2028 C            2.5893    -6.8789     2.1206 C       5      r5     0.1145
   2029 O            3.1114    -5.4799     1.8778 O       5      r5    -0.4866
   2030 C            4.2624    -5.8091     1.2527 C       5      r5     0.1241
   2031 C            4.4715    -7.2123     1.0942 C       5      r5    -0.0288
   2032 C            3.4267    -7.9126     1.6871 C       5      r5    -0.0187
   2033 C            1.3451    -7.1353     2.6861 C       0      r0     0.0036
   2034 C            6.5549    -5.2818     0.3646 C       0      r0     0.1304
   2035 O            7.3090    -4.7045    -0.6524 O       0      r0    -0.5657
   2036 C            9.3593    -6.0958     0.7067 C       0      r0     0.1940
   2037 C            8.3143    -6.7681     1.2374 C       0      r0    -0.0037
   2038 C            6.8948    -6.1919     1.2852 C       0      r0    -0.0253
   2039 C            5.1871    -4.8827     0.6981 C       0      r0    -0.0133
   2040 C            0.7307    -8.4033     2.8143 C       5      r5     0.1195
   2041 C           -0.5214    -8.3820     3.5002 C       5      r5    -0.0133
   2042 C           -0.8400    -9.7114     3.5759 C       5      r5    -0.0050
   2043 C            0.1761   -10.5289     2.9289 C       5      r5     0.1129
   2044 O            1.3199    -9.6567     2.4813 O       5      r5    -0.4804
   2045 C            0.1557   -11.8915     2.9470 C       0      r0    -0.0427
   2046 H            5.3627    -7.5752     0.5982 H       0      r0     0.0626
   2047 H            3.2029    -8.9623     1.8326 H       0      r0     0.0984
   2048 H            0.9419    -6.1860     3.0480 H       0      r0     0.0778
   2049 H            8.5576    -7.8178     1.5182 H       0      r0     0.0711
   2050 H            6.3367    -6.3992     2.1713 H       0      r0     0.0448
   2051 H            4.8202    -3.8189     0.5123 H       0      r0     0.0661
   2052 H           -1.0382    -7.5247     3.8277 H       0      r0     0.1003
   2053 H           -1.6909   -10.1992     4.1285 H       0      r0     0.0774
   2054 H           -0.7053   -12.3818     3.3148 H       0      r0     0.0407
   2055 H            0.9663   -12.5276     2.4874 H       0      r0     0.0677
   2056 C            6.6999   -17.5750    17.9927 C       5      r5     0.1136
   2057 O            6.7374   -16.2170    18.7981 O       5      r5    -0.4502
   2058 C            6.5203   -15.3912    17.7046 C       5      r5     0.1448
   2059 C            6.3022   -15.9136    16.4252 C       5      r5    -0.0221
   2060 C            6.4076   -17.2821    16.6229 C       5      r5    -0.0252
   2061 C            6.9010   -18.8083    18.4679 C       0      r0    -0.0117
   2062 C            6.5163   -13.9161    17.7386 C       0      r0     0.0065
   2063 H            6.0818   -15.4170    15.4722 H       0      r0     0.0524
   2064 H            6.3533   -18.0673    15.9236 H       0      r0     0.0400
   2065 H            7.0197    18.1566    18.6365 H       0      r0     0.0593
   2066 H            6.4036   -13.3565    16.8481 H       0      r0     0.0717
   2067 C           11.3272    15.9287   -15.0215 C       0      r0     0.0965
   2068 O           10.6342    16.3355   -16.5238 O       0      r0    -0.4398
   2069 C            9.1743    16.2691   -15.7779 C       0      r0     0.0971
   2070 C            9.1334    15.8734   -14.3388 C       0      r0    -0.0364
   2071 C           10.4408    15.6784   -13.8732 C       0      r0    -0.0402
   2072 C           12.6529    15.8117   -14.8799 C       0      r0     0.0314
   2073 C            8.0086    16.6121   -16.2183 C       0      r0    -0.0317
   2074 H            8.2421    15.7599   -13.7483 H       0      r0     0.0420
   2075 H           10.7742    15.4704   -12.8652 H       0      r0     0.0425
   2076 H           13.6263    15.6369   -14.4268 H       0      r0     0.1393
   2077 H            6.9802    16.8959   -16.3246 H       0      r0     0.0822
   2078 C           -0.0434    -3.5336    -4.8491 C       5      r5     0.0498
   2079 C           -0.7938    -4.6275    -4.2699 C       5      r5    -0.0198
   2080 C           -0.1044    -5.6255    -4.6859 C       5      r5     0.0031
   2081 C            1.0973    -5.1277    -5.6093 C       5      r5     0.1600
   2082 C            1.2906    -4.1574    -7.9580 C       5      r5     0.1709
   2083 O            1.5667    -2.8268    -7.8652 O       5      r5    -0.4552
   2084 C            0.4328    -2.2707    -7.0484 C       5      r5     0.1278
   2085 C           -0.3908    -3.3379    -6.3839 C       5      r5    -0.0097
   2086 C            0.3526    -4.6822    -6.8922 C       5      r5     0.0308
   2087 C            0.0118    -0.9794    -7.1695 C       0      r0     0.0192
   2088 C           -0.1029    -2.3427    -3.9365 C       0      r0    -0.0100
   2089 C            2.0032    -6.4256    -5.9145 C       0      r0     0.0085
   2090 C            1.8573    -4.9685    -8.8931 C       0      r0     0.0182
   2091 O            1.6779    -4.0242    -5.0990 O       5      r5    -0.4776
   2092 C           -2.3400     1.4559    -5.9285 C       5      r5     0.2180
   2093 C           -2.5917     0.1562    -5.1074 C       5      r5    -0.0146
   2094 C           -1.8084    -0.8255    -5.5455 C       5      r5    -0.0498
   2095 C           -1.0044    -0.1716    -6.5664 C       5      r5     0.1366
   2096 O           -1.1310     1.1165    -7.0005 O       5      r5    -0.4481
   2097 O            0.5264    -6.9774    -8.3361 O       5      r5    -0.4929
   2098 C            1.4830    -6.3200    -9.0884 C       5      r5     0.1333
   2099 C            2.0921    -6.9730   -10.1903 C       5      r5    -0.0196
   2100 C            1.6186    -8.2887   -10.3675 C       5      r5    -0.0185
   2101 C            0.6904    -8.3179    -9.2866 C       5      r5     0.1047
   2102 O           -0.4206    -2.2738    -1.4443 O       5      r5    -0.4812
   2103 C            0.4593    -3.1056    -0.3205 C       5      r5     0.1139
   2104 C            1.5840    -3.7681    -0.9685 C       5      r5    -0.0109
   2105 C            1.4496    -3.5327    -2.3221 C       5      r5     0.0038
   2106 C            0.2970    -2.7593    -2.4292 C       5      r5     0.1716
   2107 C            2.1161    -7.1373    -4.5484 C       5      r5     0.1480
   2108 C            1.6040    -8.4903    -4.5493 C       5      r5    -0.0318
   2109 C            1.3936    -8.8144    -3.3247 C       5      r5    -0.0482
   2110 C            1.9014    -7.6575    -2.4452 C       5      r5     0.0591
   2111 O            2.4345    -6.4620    -3.4755 O       5      r5    -0.4787
   2112 C            0.0741    -3.0590     0.8325 C       0      r0     0.0090
   2113 C            0.0534    -9.3953    -9.3344 C       0      r0    -0.0292
   2114 H           -1.6745    -4.6593    -3.6918 H       0      r0     0.0925
   2115 H           -0.3557    -6.6375    -4.5989 H       0      r0     0.0855
   2116 H           -1.4165    -3.2416    -6.6148 H       0      r0     0.0426
   2117 H           -0.3070    -5.5316    -7.2287 H       0      r0     0.1160
   2118 H            0.9377    -0.5103    -7.6326 H       0      r0     0.1090
   2119 H            0.5018    -1.4676    -4.3426 H       0      r0     0.1247
   2120 H           -1.1003    -1.8513    -3.8505 H       0      r0     0.0582
   2121 H            1.6270    -7.0786    -6.7043 H       0      r0     0.0987
   2122 H            3.0085    -6.0275    -6.2850 H       0      r0     0.1520
   2123 H            2.5945    -4.5359    -9.5341 H       0      r0     0.0754
   2124 H           -3.2081    -0.0818    -4.2167 H       0      r0     0.1119
   2125 H           -1.7169    -1.8469    -5.2468 H       0      r0     0.0275
   2126 H            2.7830    -6.4842   -10.8923 H       0      r0     0.0355
   2127 H            1.9634    -8.9825   -11.1158 H       0      r0     0.0849
   2128 H            2.2868    -4.3572    -0.4542 H       0      r0     0.0740
   2129 H            1.9947    -3.8580    -3.1511 H       0      r0     0.1245
   2130 H            1.4882    -9.1445    -5.3963 H       0      r0     0.0563
   2131 H            1.0902    -9.8155    -2.9892 H       0      r0     0.0322
   2132 H            0.6115    -3.5787     1.6209 H       0      r0     0.0778
   2133 H           -0.8119    -2.5795     1.1610 H       0      r0     0.1155
   2134 H            0.2804   -10.1353   -10.1328 H       0      r0     0.0677
   2135 H           -0.7363    -9.6453    -8.5935 H       0      r0     0.0625
   2136 C           -2.7494   -10.3278    -1.7328 C       5      r5     0.0453
   2137 C           -2.2099   -11.3448    -2.6810 C       5      r5    -0.0369
   2138 C           -3.0109   -12.3090    -2.3735 C       5      r5    -0.0043
   2139 C           -3.8161   -12.0276    -1.1447 C       5      r5     0.1354
   2140 C           -3.4486   -11.3471     1.4370 C       5      r5     0.1530
   2141 O           -3.4979    -9.9542     1.6003 O       5      r5    -0.4859
   2142 C           -2.5206    -9.4604     0.6897 C       5      r5     0.1282
   2143 C           -2.0569   -10.4814    -0.3782 C       5      r5    -0.0198
   2144 C           -2.8057   -11.8035     0.1367 C       5      r5     0.0136
   2145 C           -2.0700    -8.2087     0.6198 C       0      r0     0.0065
   2146 C           -2.6363    -8.9316    -2.3574 C       0      r0    -0.0193
   2147 C           -4.7158   -13.1860    -0.7406 C       0      r0     0.0021
   2148 C           -3.9884   -12.2545     2.3040 C       0      r0    -0.0002
   2149 O           -4.4204   -10.8572    -1.3473 O       5      r5    -0.4885
   2150 C            0.0242    -6.0991    -1.4120 C       5      r5     0.1607
   2151 C            0.7243    -7.3684    -1.5227 C       5      r5     0.0037
   2152 C            0.0239    -8.3238    -0.6422 C       5      r5    -0.0382
   2153 C           -1.0018    -7.6599    -0.2078 C       5      r5     0.1022
   2154 O           -1.1043    -6.1493    -0.4925 O       5      r5    -0.4558
   2155 O           -3.1224   -14.3654     1.2506 O       5      r5    -0.5095
   2156 C           -3.7539   -13.6773     2.2355 C       5      r5     0.1203
   2157 C           -4.0717   -14.3271     3.4120 C       5      r5    -0.0239
   2158 C           -3.8874   -15.7374     3.3044 C       5      r5    -0.0466
   2159 C           -3.3748   -15.7833     1.9900 C       5      r5     0.0803
   2160 O           -2.9616    -8.0325    -4.6952 O       5      r5    -0.4436
   2161 C           -3.9468    -8.5148    -5.9034 C       5      r5     0.0915
   2162 C           -4.7033    -9.6105    -5.3096 C       5      r5    -0.0292
   2163 C           -4.3148    -9.8380    -3.9869 C       5      r5    -0.0042
   2164 C           -3.3338    -8.9175    -3.7409 C       5      r5     0.1496
   2165 C           -5.3523   -13.8200    -2.0369 C       0      r0     0.1917
   2166 C           -6.1979   -12.8863    -2.7927 C       0      r0     0.0175
   2167 C           -6.6125   -12.9994    -4.1577 C       0      r0    -0.0031
   2168 C           -6.1281   -14.0686    -4.7072 C       0      r0     0.1766
   2169 O           -5.0822   -14.9087    -2.3653 O       0      r0    -0.4310
   2170 C           -4.0445    -7.9368    -6.9604 C       0      r0    -0.0165
   2171 C           -3.1121   -17.0159     1.7146 C       0      r0    -0.0469
   2172 H           -1.3833   -11.2562    -3.3697 H       0      r0     0.0734
   2173 H           -3.0036   -13.3002    -2.7945 H       0      r0     0.0969
   2174 H           -0.9946   -10.4588    -0.4038 H       0      r0     0.0246
   2175 H           -2.2604   -12.7431     0.1907 H       0      r0     0.0721
   2176 H           -2.6953    -7.7026     1.3737 H       0      r0     0.0978
   2177 H           -3.1724    -8.3259    -1.6145 H       0      r0     0.0765
   2178 H           -1.6260    -8.5427    -2.4107 H       0      r0     0.0630
   2179 H           -4.1298   -13.9838    -0.2118 H       0      r0     0.1267
   2180 H           -5.4146   -12.9471     0.0363 H       0      r0     0.0572
   2181 H           -4.4024   -11.7892     3.1587 H       0      r0     0.0868
   2182 H            2.7859    -7.9364    -1.9018 H       0      r0     0.0681
   2183 H            0.2917    -9.3072    -0.4067 H       0      r0     0.0371
   2184 H           -4.4862   -13.7799     4.2837 H       0      r0     0.0985
   2185 H           -4.1143   -16.5709     4.0693 H       0      r0     0.0800
   2186 H           -5.5438   -10.1163    -5.7908 H       0      r0     0.0398
   2187 H           -4.7288   -10.5523    -3.2876 H       0      r0     0.1058
   2188 H           -6.5314   -12.0726    -2.2813 H       0      r0     0.0935
   2189 H           -7.3152   -12.3135    -4.6755 H       0      r0     0.0767
   2190 H           -4.8191    -8.2866    -7.6233 H       0      r0     0.0545
   2191 H           -3.3872    -7.1324    -7.3361 H       0      r0     0.1386
   2192 H           -3.4225   -17.8323     2.3877 H       0      r0     0.0817
   2193 H           -2.6128   -17.3023     0.7934 H       0      r0     0.0586
   2194 C            4.8136    -1.4872    -3.1860 C       6      r6     0.1108
   2195 C            4.6584    -2.7577    -2.3618 C       6      r6    -0.0241
   2196 C            5.0238    -4.0128    -2.7569 C       6      r6    -0.0302
   2197 C            5.2874    -4.0378    -4.1179 C       6      r6    -0.0042
   2198 C            5.0553    -2.7785    -6.4398 C       5      r5     0.1748
   2199 O            5.2668    -1.4264    -6.4206 O       5      r5    -0.4907
   2200 C            4.2289    -0.8716    -5.5812 C       5      r5     0.1478
   2201 C            3.9555    -1.8298    -4.4499 C       5      r5     0.0081
   2202 C            4.4292    -3.2190    -5.0873 C       5      r5     0.0261
   2203 C            3.4168     0.1932    -5.8383 C       0      r0     0.0026
   2204 C            4.1056    -0.3961    -2.3359 C       0      r0    -0.0060
   2205 C            6.4088    -4.9843    -4.6109 C       0      r0    -0.0166
   2206 C            5.4348    -3.5445    -7.4531 C       0      r0     0.0469
   2207 O            6.1621    -1.1161    -3.5131 O       0      r0    -0.5979
   2208 C            0.7290     1.1817    -3.5998 C       5      r5     0.1140
   2209 C            1.1128     2.3767    -4.3630 C       5      r5    -0.0102
   2210 C            2.0277     2.0014    -5.3139 C       5      r5    -0.0212
   2211 C            2.3774     0.6958    -4.9898 C       5      r5     0.1160
   2212 O            1.6399    -0.0533    -3.9634 O       5      r5    -0.5028
   2213 O            4.6720    -5.5036    -6.5587 O       0      r0    -0.5140
   2214 C            5.2192    -4.9606    -7.5195 C       0      r0     0.1614
   2215 C            5.5306    -5.6357    -8.7771 C       0      r0    -0.0168
   2216 C            5.3684    -7.0087    -8.9835 C       0      r0    -0.0410
   2217 C            5.0373    -7.9661    -8.0104 C       0      r0     0.0021
   2218 O            3.5418    -0.5254    -0.0975 O       0      r0    -0.4666
   2219 C            5.2113    -0.7223     1.8525 C       0      r0     0.1349
   2220 C            6.2109    -0.8527     0.8509 C       0      r0    -0.0193
   2221 C            5.8449    -0.8493    -0.4710 C       0      r0    -0.0186
   2222 C            4.4794    -0.5687    -0.8494 C       0      r0     0.1625
   2223 C            6.5518    -6.1798    -3.6662 C       5      r5     0.0654
   2224 C            5.3853    -6.8831    -3.2163 C       3      r3    -0.0231
   2225 C            6.8091    -8.3936    -2.9036 C       5      r5     0.0295
   2226 C            7.9764    -7.6863    -2.2725 C       5      r5     0.1529
   2227 O            7.9511    -6.3291    -2.5824 O       5      r5    -0.4882
   2228 C            8.9181    -8.4235    -1.6837 C       0      r0     0.0021
   2229 C           -0.2006     1.1651    -2.7037 C       0      r0    -0.0041
   2230 H            4.4776    -2.5841    -1.3071 H       0      r0     0.0669
   2231 H            5.2332    -4.7849    -2.0837 H       0      r0     0.0670
   2232 H            2.9105    -1.9605    -4.0715 H       0      r0     0.0846
   2233 H            3.5946    -3.8231    -5.5024 H       0      r0     0.1599
   2234 H            3.7539     0.8357    -6.6502 H       0      r0     0.0536
   2235 H            4.5905     0.5392    -2.6450 H       0      r0     0.0513
   2236 H            3.0384    -0.2586    -2.5718 H       0      r0     0.1177
   2237 H            6.2964    -5.3018    -5.6841 H       0      r0     0.1166
   2238 H            7.3767    -4.4336    -4.7595 H       0      r0     0.0771
   2239 H            5.9399    -3.1859    -8.3368 H       0      r0     0.1214
   2240 H            0.7683     3.3748    -4.2051 H       0      r0     0.0824
   2241 H            2.4731     2.6146    -6.0462 H       0      r0     0.0547
   2242 H            5.6790    -5.0228    -9.6717 H       0      r0     0.0967
   2243 H            5.4279    -7.4910    -9.9720 H       0      r0     0.0489
   2244 H            7.2423    -1.0107     1.2035 H       0      r0     0.0731
   2245 H            6.5061    -0.8664    -1.3249 H       0      r0     0.0877
   2246 H            4.3268    -6.7235    -3.3991 H       0      r0     0.1197
   2247 H            3.5544   -13.9822    -0.3327 H       0      r0     0.3491
   2248 H            8.7390    -9.5259    -1.5766 H       0      r0     0.0753
   2249 H            9.8425    -8.0826    -1.2515 H       0      r0     0.0986
   2250 H           -0.6963     2.0975    -2.5121 H       0      r0     0.0740
   2251 H           -0.4947     0.2383    -2.1278 H       0      r0     0.1088
   2252 C            3.7822   -12.1239    -1.0702 C       6      r6     0.1303
   2253 C            2.4572   -11.4561    -0.6273 C       6      r6    -0.0423
   2254 C            1.2508   -11.9042    -0.8870 C       6      r6    -0.0490
   2255 C            1.4036   -13.0934    -1.6137 C       6      r6     0.0083
   2256 C            2.4850   -14.3178    -3.5370 C       5      r5     0.1504
   2257 O            3.7906   -14.6635    -3.5006 O       5      r5    -0.4745
   2258 C            4.4826   -13.3672    -3.3384 C       5      r5     0.1399
   2259 C            3.5987   -12.3576    -2.6708 C       5      r5     0.0096
   2260 C            2.1675   -13.0032    -2.8778 C       5      r5     0.0014
   2261 C            5.7261   -13.0621    -3.8905 C       0      r0    -0.0225
   2262 C            4.9343   -11.1309    -0.9395 C       0      r0     0.0270
   2263 C            0.5786   -14.3403    -1.1964 C       0      r0    -0.0178
   2264 C            1.4467   -14.9695    -4.1709 C       0      r0     0.0027
   2265 O            4.2652   -13.3163    -0.5448 O       0      r0    -0.5929
   2266 C            6.6716    -9.6016    -3.7840 C       5      r5     0.1235
   2267 C            7.8341   -10.2437    -4.3444 C       5      r5    -0.0301
   2268 C            7.6297   -11.6160    -4.4400 C       5      r5    -0.0503
   2269 C            6.3250   -11.7727    -3.9464 C       5      r5     0.0905
   2270 O            5.5903   -10.5417    -3.5897 O       5      r5    -0.5150
   2271 O           -0.4391   -13.3898    -3.7668 O       5      r5    -0.4841
   2272 C            0.1320   -14.4209    -4.4487 C       5      r5     0.1323
   2273 C           -0.5472   -14.9812    -5.5271 C       5      r5    -0.0185
   2274 C           -1.7624   -14.2836    -5.6944 C       5      r5    -0.0212
   2275 C           -1.7421   -13.3042    -4.7136 C       5      r5     0.0979
   2276 O            6.3345   -10.3116     0.6571 O       0      r0    -0.4676
   2277 C            6.3625   -11.0774     3.2086 C       0      r0     0.1798
   2278 C            5.3410   -11.9462     2.8253 C       0      r0    -0.0043
   2279 C            4.8337   -11.8840     1.5292 C       0      r0     0.0033
   2280 C            5.4562   -11.0887     0.5085 C       0      r0     0.1898
   2281 C            0.8961   -14.7924     0.2510 C       5      r5     0.1278
   2282 C           -0.1414   -15.0458     1.0793 C       5      r5    -0.0288
   2283 C            0.4144   -15.2762     2.3285 C       5      r5    -0.0369
   2284 C            1.8717   -15.1646     2.2887 C       5      r5     0.0839
   2285 O            2.1660   -14.7725     0.7400 O       5      r5    -0.4806
   2286 C            2.6834   -15.2880     3.1781 C       0      r0    -0.0303
   2287 C            6.2467    -7.5948    -3.8546 C       5      r5     0.0040
   2288 H            2.4538   -10.5275    -0.0255 H       0      r0     0.0518
   2289 H            0.4335   -11.5217    -0.3763 H       0      r0     0.0446
   2290 H            3.7468   -11.4486    -3.1714 H       0      r0     0.0719
   2291 H            1.6237   -12.4123    -3.6786 H       0      r0     0.0693
   2292 H            6.1210   -14.0483    -4.0809 H       0      r0     0.0561
   2293 H            5.6878   -11.2526    -1.7132 H       0      r0     0.1201
   2294 H            4.5408   -10.1531    -1.2658 H       0      r0     0.0584
   2295 H           -0.5448   -14.1252    -1.3166 H       0      r0     0.0641
   2296 H            0.7616   -15.1222    -1.8982 H       0      r0     0.0701
   2297 H            1.6434   -15.9441    -4.6612 H       0      r0     0.1048
   2298 H            8.7670    -9.7755    -4.6180 H       0      r0     0.0620
   2299 H            8.3333   -12.4039    -4.6957 H       0      r0     0.0291
   2300 H           -0.1076   -15.7421    -6.1542 H       0      r0     0.0742
   2301 H           -2.5147   -14.4103    -6.4426 H       0      r0     0.0541
   2302 H            4.8441   -12.5936     3.5249 H       0      r0     0.1203
   2303 H            3.9231   -12.4516     1.2326 H       0      r0     0.1078
   2304 H           -1.1683   -15.0028     0.7563 H       0      r0     0.0868
   2305 H           -0.2012   -15.5065     3.2139 H       0      r0     0.0349
   2306 H            2.3617   -15.4544     4.1934 H       0      r0     0.0457
   2307 H            3.7330   -15.1609     3.0093 H       0      r0     0.0819
   2308 H            6.1975    -1.1805    -4.4203 H       0      r0     0.3325
   2309 H            7.2808    -5.3174    -1.5107 H       0      r0     0.3548
   2310 C          -12.4417     1.1410     5.6553 C       0      r0     0.1511
   2311 C          -12.3789     0.4956     4.4737 C       0      r0    -0.0218
   2312 C          -11.7646    -0.6580     3.9707 C       0      r0    -0.0313
   2313 C          -11.0155    -1.6920     4.6042 C       0      r0     0.1614
   2314 C          -10.6557    -2.7513     3.5103 C       0      r0    -0.0056
   2315 O          -10.8211    -1.9228     5.7333 O       0      r0    -0.4976
   2316 O          -13.1973     2.1725     5.8616 O       0      r0    -0.4555
   2317 C           -9.7172    -3.9745     3.7978 C       5      r5     0.1513
   2318 C           -9.1676    -4.2272     5.0239 C       5      r5    -0.0009
   2319 C           -8.5674    -5.4648     4.9612 C       5      r5    -0.0295
   2320 C           -8.6127    -6.0154     3.5890 C       5      r5     0.0773
   2321 O           -9.4510    -4.7568     2.7657 O       5      r5    -0.4918
   2322 C           -8.1508    -7.0653     3.2127 C       0      r0    -0.0377
   2323 C          -11.6224     0.5922     6.8077 C       0      r0     0.0238
   2324 C          -14.4034    -1.1059     9.6542 C       0      r0     0.1468
   2325 C          -14.6823    -1.2365     8.3702 C       0      r0    -0.0253
   2326 C          -13.7317    -0.4799     7.5469 C       0      r0    -0.0092
   2327 C          -12.5487     0.2334     8.0279 C       0      r0     0.2066
   2328 O          -12.1018     0.4977     9.0811 O       0      r0    -0.4518
   2329 H          -12.9342     1.0903     3.7482 H       0      r0     0.0577
   2330 H          -12.0746    -0.7261     2.9397 H       0      r0     0.0530
   2331 H          -11.5993    -2.9804     3.0396 H       0      r0     0.0933
   2332 H          -10.3818    -2.1515     2.6856 H       0      r0     0.0523
   2333 H           -9.3679    -3.6479     5.9603 H       0      r0     0.0894
   2334 H           -8.1133    -6.0084     5.7682 H       0      r0     0.0321
   2335 H           -7.5500    -7.5188     3.9952 H       0      r0     0.0427
   2336 H           -8.1182    -7.4203     2.2017 H       0      r0     0.1060
   2337 H          -11.0108    -0.3165     6.5652 H       0      r0     0.1175
   2338 H          -10.8004     1.2871     7.1602 H       0      r0     0.0845
   2339 H          -15.5581    -1.6848     7.8742 H       0      r0     0.1007
   2340 H          -13.9317    -0.4704     6.4907 H       0      r0     0.0725
   2341 C          -12.9280   -13.9882   -15.6224 C       0      r0     0.1659
   2342 C          -12.8099   -12.6811   -14.9831 C       0      r0    -0.0208
   2343 C          -11.6801   -11.9378   -14.8743 C       0      r0    -0.0334
   2344 C          -10.4011   -12.1391   -15.5342 C       0      r0     0.1748
   2345 C           -9.5729   -10.7661   -15.6871 C       0      r0    -0.0016
   2346 O           -9.9998   -12.9884   -16.2256 O       0      r0    -0.5108
   2347 O          -13.9526   -14.3882   -16.0333 O       0      r0    -0.4768
   2348 C           -9.6520   -10.0923   -17.0390 C       5      r5     0.1432
   2349 C          -10.7264   -10.4757   -17.8396 C       5      r5    -0.0126
   2350 C          -10.6926    -9.8777    18.8457 C       5      r5    -0.0296
   2351 C           -9.5347    -9.0518   -18.9311 C       5      r5     0.0764
   2352 O           -8.7397    -9.2750   -17.4903 O       5      r5    -0.4846
   2353 C           -9.3334    -8.3973    17.9648 C       0      r0    -0.0223
   2354 C          -11.6513   -14.8721   -15.8207 C       0      r0     0.0221
   2355 C          -11.4520    18.8759   -14.7645 C       0      r0    -0.0115
   2356 C          -12.5429   -18.2497   -14.4645 C       0      r0    -0.0242
   2357 C          -12.5025   -16.7905   -14.7614 C       0      r0    -0.0130
   2358 C          -11.7891   -16.3343   -15.7449 C       0      r0     0.1515
   2359 O          -10.9912   -17.0174   -16.6176 O       0      r0    -0.4855
   2360 H          -13.6719   -12.2098   -14.5924 H       0      r0     0.0661
   2361 H          -11.9207   -10.9618   -14.4491 H       0      r0     0.0489
   2362 H           -9.7475   -10.1383   -14.8027 H       0      r0     0.0511
   2363 H           -8.5343   -10.8760   -15.2707 H       0      r0     0.0809
   2364 H          -11.4419   -11.2180   -17.5189 H       0      r0     0.0665
   2365 H          -11.3840   -10.0376    17.9894 H       0      r0     0.1029
   2366 H          -10.0746    -8.5020    17.1481 H       0      r0     0.0968
   2367 H           -8.5901    -7.7039    17.7852 H       0      r0     0.0740
   2368 H          -11.3088   -14.5306   -16.7898 H       0      r0     0.1260
   2369 H          -10.9112   -14.3689   -15.0896 H       0      r0     0.0803
   2370 H          -13.2718   -18.6374   -13.7929 H       0      r0     0.0797
   2371 H          -13.0284   -16.0724   -14.1542 H       0      r0     0.0515
   2372 C          -12.4736     8.6913    10.5841 C       5      r5     0.1633
   2373 O          -11.5321     9.5720     9.9622 O       5      r5    -0.4634
   2374 C          -11.8018    10.7320    10.9570 C       5      r5     0.1273
   2375 C          -12.6933    10.5434    11.9613 C       5      r5    -0.0064
   2376 C          -13.1320     9.2036    11.7358 C       5      r5     0.0340
   2377 C          -12.8440     7.5170     9.9252 C       0      r0     0.0350
   2378 C          -10.9473    13.0753    11.5043 C       5      r5     0.1221
   2379 O          -10.1265    14.2082    10.9783 O       5      r5    -0.4697
   2380 C          -10.3100    14.9873    12.4115 C       5      r5     0.1034
   2381 C          -11.0784    14.2705    13.3314 C       5      r5    -0.0121
   2382 C          -11.5087    13.0498    12.7530 C       5      r5    -0.0322
   2383 C          -11.1054    11.9204    10.6791 C       0      r0     0.0351
   2384 C          -13.7234     6.5816    10.5617 C       5      r5     0.1223
   2385 C          -14.1439     5.5199     9.8365 C       5      r5     0.0099
   2386 C          -15.0369     4.8382    10.6611 C       5      r5     0.0036
   2387 C          -15.1046     5.4357    11.9987 C       5      r5     0.1128
   2388 O          -14.2225     6.6786    11.9802 O       5      r5    -0.4642
   2389 C          -15.6895     5.0548    12.9930 C       0      r0    -0.0019
   2390 H          -13.0928    11.2640    12.6536 H       0      r0     0.0629
   2391 H          -13.8912     8.7249    12.3249 H       0      r0     0.1231
   2392 H          -12.3446     7.2528     9.0093 H       0      r0     0.1210
   2393 H          -11.2312    14.5925    14.3417 H       0      r0     0.1220
   2394 H          -12.1569    12.2540    13.2101 H       0      r0     0.0351
   2395 H          -10.5098    11.9127     9.7498 H       0      r0     0.1147
   2396 H          -13.8555     5.2794     8.7966 H       0      r0     0.1479
   2397 H          -15.5973     3.9515    10.4241 H       0      r0     0.1052
   2398 H          -16.2768     4.1609    12.8437 H       0      r0     0.1177
   2399 H          -15.6698     5.4977    13.9776 H       0      r0     0.1170
   2400 C           17.2527    18.9384     7.2333 C       5      r5     0.1316
   2401 O           17.7526    17.7579     6.5162 O       5      r5    -0.4658
   2402 C          -18.1036    17.8758     7.0591 C       5      r5     0.1101
   2403 C          -17.9436    18.9830     7.9669 C       5      r5    -0.0304
   2404 C           18.0741   -18.3534     8.0111 C       5      r5    -0.0124
   2405 C           15.8501   -18.7100     7.1241 C       0      r0     0.0146
   2406 C          -15.6857    17.2490     7.1643 C       0      r0     0.1543
   2407 O          -14.9113    16.4085     7.5386 O       0      r0    -0.4726
   2408 C          -12.8934    18.2772     7.2801 C       0      r0     0.1846
   2409 C          -14.0227   -18.9572     6.9308 C       0      r0    -0.0003
   2410 C          -15.3672    18.6158     6.9005 C       0      r0    -0.0262
   2411 C          -17.1592    17.0437     6.7628 C       0      r0    -0.0003
   2412 C           15.2930   -17.6147     7.7493 C       5      r5     0.1229
   2413 C           13.9209   -17.3375     7.4415 C       5      r5    -0.0148
   2414 C           13.3823   -16.3196     8.2327 C       5      r5    -0.0257
   2415 C           14.5883   -15.9724     8.9584 C       5      r5     0.1027
   2416 O           15.9162   -16.7949     8.6800 O       5      r5    -0.4911
   2417 C           14.3029   -15.0197     9.7455 C       0      r0    -0.0351
   2418 H          -17.0034   -18.8063     8.4631 H       0      r0     0.0387
   2419 H           17.8773   -17.4691     8.5952 H       0      r0     0.0898
   2420 H           15.1975    18.7282     6.4931 H       0      r0     0.1366
   2421 H          -13.6923   -17.9692     6.8523 H       0      r0     0.1031
   2422 H          -16.1015   -18.7422     6.5179 H       0      r0     0.0453
   2423 H          -17.3360    16.2024     6.0812 H       0      r0     0.0720
   2424 H           13.3314   -17.9494     6.6903 H       0      r0     0.0664
   2425 H           12.4050   -15.9056     8.3775 H       0      r0     0.0630
   2426 H           13.3332   -14.6372     9.7660 H       0      r0     0.0348
   2427 H           15.0254   -14.5008    10.3779 H       0      r0     0.0773
   2428 C           -4.0616    13.4723    13.5829 C       5      r5     0.1228
   2429 O           -4.5350    13.2587    12.1957 O       5      r5    -0.4665
   2430 C           -4.1725    14.6132    11.7679 C       5      r5     0.1558
   2431 C           -3.6321    15.6194    12.6885 C       5      r5    -0.0233
   2432 C           -3.5801    14.8174    13.7904 C       5      r5    -0.0193
   2433 C           -3.9673    12.7164    14.6392 C       0      r0    -0.0174
   2434 C           -4.2103    15.1402    10.6185 C       0      r0     0.1607
   2435 H           -3.3159    16.6254    12.5367 H       0      r0     0.0848
   2436 H           -3.2074    15.1118    14.7480 H       0      r0     0.0541
   2437 H           -3.9099    11.9664    15.4283 H       0      r0     0.0934
   2438 H           -3.7972    16.1188    10.4030 H       0      r0     0.1151
   2439 C          -10.5954     6.8341   -16.2249 C       5      r5     0.0994
   2440 O          -10.7236     8.3894   -15.9444 O       5      r5    -0.4694
   2441 C          -11.8708     8.2951   -15.1328 C       5      r5     0.1435
   2442 C          -12.4905     7.0787   -14.9099 C       5      r5    -0.0263
   2443 C          -11.7160     6.1569   -15.5785 C       5      r5    -0.0236
   2444 C           -9.6477     6.1663   -16.8446 C       0      r0    -0.0413
   2445 C          -12.6230     9.4487   -14.5505 C       0      r0    -0.0203
   2446 H          -13.4245     6.9828   -14.4193 H       0      r0     0.0384
   2447 H          -11.8615     5.0788   -15.5655 H       0      r0     0.0553
   2448 H           -9.0636     5.4142   -17.3036 H       0      r0     0.0412
   2449 H          -13.6223     9.3675   -14.1953 H       0      r0     0.0375
   2450 C           -9.8954    16.9679   -14.1498 C       5      r5     0.1273
   2451 O           -8.9712    16.0067   -14.5175 O       5      r5    -0.4703
   2452 C           -9.1135    15.1384   -13.1752 C       5      r5     0.0918
   2453 C           -9.9698    15.8657   -12.2595 C       5      r5    -0.0338
   2454 C          -10.4806    17.0044   -12.8605 C       5      r5    -0.0377
   2455 C          -10.4166    18.0092   -15.0510 C       0      r0    -0.0159
   2456 C           -8.5566    13.9692   -12.8785 C       0      r0    -0.0375
   2457 H          -10.2771    15.4878   -11.2842 H       0      r0     0.0792
   2458 H          -11.2013    17.6442   -12.4467 H       0      r0     0.0452
   2459 H          -10.1148    18.0703   -16.1025 H       0      r0     0.0702
   2460 H           -8.3186    13.0590   -12.4035 H       0      r0     0.0492
   2461 C           -2.5497     6.9491    -8.9473 C       5      r5     0.1330
   2462 O           -3.5701     6.3461    -8.2196 O       5      r5    -0.4556
   2463 C           -3.9552     5.2645    -9.3076 C       5      r5     0.0954
   2464 C           -2.9696     5.3465   -10.3817 C       5      r5    -0.0264
   2465 C           -2.1198     6.3888   -10.1517 C       5      r5    -0.0399
   2466 C           -1.7399     8.1209    -8.4844 C       0      r0    -0.0102
   2467 C           -4.9464     4.3242    -9.2572 C       0      r0    -0.0352
   2468 H           -3.1174     4.8315   -11.3205 H       0      r0     0.1181
   2469 H           -1.3672     6.7580   -10.7885 H       0      r0     0.0435
   2470 H           -0.7219     8.3065    -8.9176 H       0      r0     0.0570
   2471 H           -5.5443     3.5511    -9.6143 H       0      r0     0.0433
   2472 C           16.5651    17.9076    -0.0363 C       5      r5     0.0601
   2473 C           15.2800    17.4434     0.5349 C       5      r5    -0.0372
   2474 C           15.5706    16.2002     0.7102 C       5      r5    -0.0223
   2475 C           16.9872    15.8435     0.0989 C       5      r5     0.1402
   2476 C           18.0155    15.7352    -2.2177 C       5      r5     0.1745
   2477 O          -18.4812    16.7803    -2.6089 O       5      r5    -0.4781
   2478 C           17.8083    17.9296    -2.3534 C       5      r5     0.1232
   2479 C           16.5643    17.5480    -1.5411 C       5      r5    -0.0076
   2480 C           16.8121    16.0430    -1.4041 C       5      r5     0.0421
   2481 C           17.9344   -18.8172    -2.7663 C       0      r0     0.0072
   2482 C           16.7825   -18.5928     0.2592 C       0      r0    -0.0248
   2483 C           17.3063    14.3411     0.6123 C       0      r0     0.0109
   2484 C           18.3129    14.4021    -2.5798 C       0      r0     0.0085
   2485 O           17.8842    16.8837     0.3632 O       5      r5    -0.4636
   2486 C           16.1280   -15.6136    -2.7523 C       5      r5     0.0838
   2487 C           15.0759   -16.4468    -2.3405 C       5      r5    -0.0425
   2488 C           15.6641   -17.7335    -2.3472 C       5      r5    -0.0438
   2489 C           17.0264   -17.6512    -2.6679 C       5      r5     0.1303
   2490 O           17.5630   -16.4245    -2.8733 O       5      r5    -0.4621
   2491 O           16.2085    13.2911    -1.7043 O       5      r5    -0.5047
   2492 C           17.4770    13.2978    -2.3228 C       5      r5     0.1314
   2493 C           17.9527    12.1066    -2.8764 C       5      r5    -0.0246
   2494 C           17.0798    11.0144    -2.6025 C       5      r5    -0.0459
   2495 C           16.0440    11.7248    -1.9482 C       5      r5     0.0908
   2496 O           17.3064   -17.1480     2.2161 O       5      r5    -0.4676
   2497 C           17.6475   -17.6153     3.6983 C       5      r5     0.1067
   2498 C           17.8320    18.9597     3.7220 C       5      r5    -0.0167
   2499 C           17.5924    18.4609     2.4597 C       5      r5     0.0000
   2500 C           17.2991   -18.4137     1.7056 C       5      r5     0.1403
   2501 C           17.0351    14.1890     2.1147 C       5      r5     0.1538
   2502 C           15.8971    13.4145     2.4695 C       5      r5    -0.0162
   2503 C           15.8118    13.4869     3.7923 C       5      r5    -0.0389
   2504 C           16.8193    14.4209     4.4402 C       5      r5     0.0605
   2505 O           17.6928    14.8512     3.0149 O       5      r5    -0.4528
   2506 C           17.7881   -16.9150     4.7070 C       0      r0    -0.0287
   2507 C           15.1121    10.8729    -1.6446 C       0      r0    -0.0335
   2508 H           14.3854    17.9788     1.0029 H       0      r0     0.1214
   2509 H           14.9169    15.5479     1.2545 H       0      r0     0.0622
   2510 H           15.6239    17.7753    -2.0819 H       0      r0     0.0388
   2511 H           15.9629    15.5036    -1.7165 H       0      r0     0.1068
   2512 H          -18.2736   -18.9055    -3.1868 H       0      r0     0.1239
   2513 H           17.3961   -18.0532    -0.4613 H       0      r0     0.0642
   2514 H           15.8719   -17.9971     0.2011 H       0      r0     0.0561
   2515 H           16.6845    13.5628     0.1763 H       0      r0     0.0957
   2516 H           18.3920    14.0726     0.2837 H       0      r0     0.1370
   2517 H          -18.0697    14.3190    -3.2040 H       0      r0     0.0656
   2518 H           14.0739   -16.1867    -2.1201 H       0      r0     0.0421
   2519 H           15.1742   -18.6342    -2.1132 H       0      r0     0.0212
   2520 H          -18.3257    12.0302    -3.3710 H       0      r0     0.0460
   2521 H           17.2198     9.9481    -2.7588 H       0      r0     0.0398
   2522 H           18.0799    18.3289     4.5596 H       0      r0     0.1050
   2523 H           17.6803    17.3878     2.0999 H       0      r0     0.1496
   2524 H           15.2225    12.8930     1.8880 H       0      r0     0.0660
   2525 H           15.0706    12.9332     4.3689 H       0      r0     0.0305
   2526 H           18.0662   -17.4289     5.6514 H       0      r0     0.0438
   2527 H           17.5880   -15.8450     4.7790 H       0      r0     0.0658
   2528 H           15.2077     9.7618    -1.7728 H       0      r0     0.0628
   2529 H           14.2145    11.1822    -1.1082 H       0      r0     0.0947
   2530 C           12.2330    13.6867     6.0698 C       5      r5     0.0906
   2531 C           12.3680    12.3143     5.4550 C       5      r5    -0.0247
   2532 C           11.7088    11.6407     6.3168 C       5      r5    -0.0326
   2533 C           11.1952    12.5008     7.4478 C       5      r5     0.0986
   2534 C           12.2667    13.4953     9.6403 C       5      r5     0.1276
   2535 O           12.4619    14.9053     9.4442 O       5      r5    -0.4830
   2536 C           13.1194    14.9804     8.2121 C       5      r5     0.1405
   2537 C           13.2264    13.7130     7.4006 C       5      r5    -0.0185
   2538 C           12.4369    12.6638     8.3892 C       5      r5     0.0016
   2539 C           13.5847    16.1836     7.7407 C       0      r0     0.0176
   2540 C           12.5507    14.8889     5.1543 C       0      r0    -0.0094
   2541 C           10.0773    11.8379     8.1586 C       0      r0     0.0086
   2542 C           12.0250    12.9481    10.8254 C       0      r0    -0.0018
   2543 O           10.7957    13.7720     6.7746 O       5      r5    -0.4845
   2544 C           15.3901    16.6953     4.6047 C       5      r5     0.1487
   2545 C           15.9809    15.4568     5.0210 C       5      r5     0.0232
   2546 C           15.3931    15.2548     6.3189 C       5      r5    -0.0271
   2547 C           14.4267    16.2457     6.5562 C       5      r5     0.1316
   2548 O           14.3158    17.2836     5.6626 O       5      r5    -0.4752
   2549 O           11.9994    10.6271    10.1645 O       5      r5    -0.4808
   2550 C           11.8801    11.6185    11.1228 C       5      r5     0.1362
   2551 C           11.4769    11.2199    12.4262 C       5      r5    -0.0274
   2552 C           11.4172     9.8114    12.5297 C       5      r5    -0.0135
   2553 C           11.6597     9.4696    11.1685 C       5      r5     0.1421
   2554 O           11.6248    13.9536     2.9571 O       5      r5    -0.4486
   2555 C           10.7003    14.7128     1.8998 C       5      r5     0.1001
   2556 C           10.3973    16.0113     2.4548 C       5      r5    -0.0213
   2557 C           10.9882    16.1531     3.7016 C       5      r5    -0.0266
   2558 C           11.6243    14.9298     3.8940 C       5      r5     0.1499
   2559 C            9.0591    12.8223     8.8742 C       0      r0     0.1924
   2560 C            9.4629    14.1623     9.0875 C       0      r0     0.0060
   2561 C            8.6166    15.1076     9.7180 C       0      r0    -0.0114
   2562 C            7.3257    14.8089    10.0279 C       0      r0     0.2054
   2563 O            8.0713    12.2829     9.2787 O       0      r0    -0.4788
   2564 C           10.2817    14.3876     0.7146 C       0      r0    -0.0406
   2565 C           11.4923     8.1745    11.0695 C       0      r0    -0.0006
   2566 H           12.8601    11.9834     4.6008 H       0      r0     0.0667
   2567 H           11.5132    10.5586     6.2666 H       0      r0     0.0398
   2568 H           14.2057    13.4518     7.0086 H       0      r0     0.0188
   2569 H           12.7927    11.6848     8.5422 H       0      r0     0.0928
   2570 H           13.2606    17.0730     8.2797 H       0      r0     0.1067
   2571 H           12.4162    15.8229     5.7221 H       0      r0     0.0746
   2572 H           13.6083    15.0068     4.8219 H       0      r0     0.0629
   2573 H            9.5627    11.1465     7.5486 H       0      r0     0.0672
   2574 H           10.6003    11.1725     8.9366 H       0      r0     0.1110
   2575 H           11.9406    13.7480    11.5601 H       0      r0     0.0542
   2576 H           17.3922    13.8601     5.1319 H       0      r0     0.0601
   2577 H           15.5365    14.4974     7.0184 H       0      r0     0.0259
   2578 H           11.2537    11.8432    13.3121 H       0      r0     0.0228
   2579 H           11.2436     9.1341    13.3635 H       0      r0     0.0536
   2580 H            9.7734    16.8026     1.9863 H       0      r0     0.1004
   2581 H           11.0489    17.0353     4.2910 H       0      r0     0.0497
   2582 H           10.4513    14.5084     8.7145 H       0      r0     0.1279
   2583 H            8.9537    16.1448     9.8452 H       0      r0     0.0680
   2584 H            9.7422    15.1295     0.1578 H       0      r0     0.0399
   2585 H           10.4913    13.3990     0.3241 H       0      r0     0.0880
   2586 H           11.2549     7.5634    11.9227 H       0      r0     0.0564
   2587 H           11.7167     7.7097    10.0826 H       0      r0     0.0871
   2588 C          -14.0108    17.2999    -0.9757 C       6      r6     0.1387
   2589 C          -12.8458    16.3927    -0.6091 C       6      r6    -0.0083
   2590 C          -13.0871    15.2806     0.1954 C       6      r6    -0.0504
   2591 C          -14.4370    14.8484     0.2085 C       6      r6    -0.0311
   2592 C          -15.4435    14.2731    -1.8650 C       5      r5     0.1453
   2593 O          -14.8525    14.8756    -3.0439 O       5      r5    -0.4921
   2594 C          -15.1756    16.2105    -2.9348 C       5      r5     0.1679
   2595 C          -15.2839    16.6513    -1.4770 C       5      r5     0.0273
   2596 C          -15.5735    15.2132    -0.6938 C       5      r5     0.0014
   2597 C          -15.3895    16.9509    -4.0043 C       0      r0     0.0205
   2598 C          -14.4436    17.7653     0.5451 C       0      r0    -0.0128
   2599 C          -14.5335    14.0130     1.2741 C       0      r0    -0.0401
   2600 C          -15.8449    13.0326    -1.8519 C       0      r0     0.0135
   2601 O          -13.5999    18.4076    -1.8017 O       0      r0    -0.5485
   2602 C          -16.3040   -17.4490    -3.6719 C       5      r5     0.1184
   2603 C          -16.6284   -17.9257    -5.0446 C       5      r5    -0.0090
   2604 C          -16.2620    18.7977    -5.3141 C       5      r5    -0.0272
   2605 C          -15.8278    18.3115    -4.0741 C       5      r5     0.1343
   2606 O          -15.8282   -18.8018    -2.9695 O       5      r5    -0.4908
   2607 O          -17.1944    13.1214     0.1910 O       0      r0    -0.5963
   2608 C          -16.6087    12.3303    -0.8256 C       0      r0     0.1245
   2609 C          -16.7248    10.9702    -0.8567 C       0      r0    -0.0217
   2610 C          -17.3480    10.1324     0.0913 C       0      r0    -0.0400
   2611 C          -17.9950    10.4866     1.2890 C       0      r0    -0.0133
   2612 O          -14.6239   -17.7665     0.6265 O       5      r5    -0.4335
   2613 C          -16.0949   -16.8636     0.7867 C       5      r5     0.0827
   2614 C          -17.1860   -17.6962     0.9070 C       5      r5    -0.0192
   2615 C          -16.6030   -19.0043     0.7685 C       5      r5    -0.0075
   2616 C          -15.2341   -18.9549     0.6619 C       5      r5     0.1633
   2617 C          -13.4554    13.4889     2.0946 C       3      r3    -0.0441
   2618 C          -12.9083    13.6077     3.3313 C       3      r3    -0.0510
   2619 C          -14.3165    12.2817     4.2095 C       0      r0     0.0272
   2620 C          -14.6238    13.2534     5.3715 C       0      r0     0.1506
   2621 O          -14.5845    12.6460     6.6064 O       0      r0    -0.5663
   2622 C          -14.9266    14.4192     5.1927 C       0      r0    -0.0259
   2623 C          -16.3908   -16.3435    -3.1940 C       0      r0     0.0013
   2624 H          -11.8507    16.6940    -0.8323 H       0      r0     0.0720
   2625 H          -12.2924    14.7892     0.7740 H       0      r0     0.0548
   2626 H          -16.0009    17.4227    -1.1518 H       0      r0     0.0971
   2627 H          -16.5726    15.1224    -0.1115 H       0      r0     0.1119
   2628 H          -15.3331    16.4180    -4.9434 H       0      r0     0.0632
   2629 H          -15.0021    16.9515     0.9463 H       0      r0     0.0271
   2630 H          -13.6544    17.9215     1.2323 H       0      r0     0.0755
   2631 H          -15.5804    13.7868     1.3521 H       0      r0     0.0998
   2632 H          -17.2500    12.4440     0.8920 H       0      r0     0.2673
   2633 H          -15.5730    12.4713    -2.7746 H       0      r0     0.0633
   2634 H          -17.1425   -17.3111    -5.7746 H       0      r0     0.0818
   2635 H          -16.3632    18.2810    -6.1866 H       0      r0     0.0463
   2636 H          -16.2856    10.4821    -1.7600 H       0      r0     0.1029
   2637 H          -17.2987     9.0706    -0.1908 H       0      r0     0.0470
   2638 H          -18.2234   -17.3885     1.1273 H       0      r0     0.0985
   2639 H          -17.1664    18.1152     0.7797 H       0      r0     0.0765
   2640 H          -12.8522    14.3867     4.0981 H       0      r0     0.0559
   2641 H          -15.4406     9.8883     5.6106 H       0      r0     0.3423
   2642 H          -15.0545    14.8473     4.2160 H       0      r0     0.0282
   2643 H          -15.1240    15.1601     6.0340 H       0      r0     0.1222
   2644 H          -16.7278   -15.4965    -3.7613 H       0      r0     0.1015
   2645 H          -16.0885   -16.1665    -2.1421 H       0      r0     0.0785
   2646 C          -16.4193     8.8631     7.4230 C       6      r6     0.0775
   2647 C          -16.4720     7.8261     8.4553 C       6      r6    -0.0133
   2648 C          -17.6225     7.3580     9.0666 C       6      r6    -0.0230
   2649 C           18.3005     7.6654     8.5619 C       6      r6    -0.0048
   2650 C           17.5374     7.3951     6.5811 C       5      r5     0.1406
   2651 O           18.4922     6.8503     5.7264 O       5      r5    -0.4899
   2652 C          -17.8713     7.9150     5.5273 C       5      r5     0.1426
   2653 C          -17.7410     8.9397     6.6202 C       5      r5     0.0079
   2654 C           18.0279     8.4482     7.4010 C       5      r5     0.0066
   2655 C          -17.2534     8.0906     4.3050 C       0      r0    -0.0053
   2656 C          -16.1731    10.1982     8.1268 C       0      r0     0.0143
   2657 C           17.2083     7.3934     9.5565 C       0      r0    -0.0227
   2658 C           16.1214     7.2775     6.2914 C       0      r0     0.0080
   2659 O          -14.8644     8.7123     6.5185 O       0      r0    -0.5116
   2660 C          -14.9229    11.1104     3.9522 C       0      r0     0.1042
   2661 C          -14.9710    10.3122     2.8071 C       0      r0    -0.0145
   2662 C          -15.7646     9.1398     2.7824 C       0      r0    -0.0435
   2663 C          -16.4193     9.1475     3.9295 C       0      r0     0.0754
   2664 O          -16.0912    10.4352     4.9597 O       0      r0    -0.5604
   2665 O           15.2189     8.8821     7.9655 O       5      r5    -0.4804
   2666 C           15.0960     7.9465     6.9129 C       5      r5     0.1112
   2667 C           13.8028     7.5759     6.5249 C       5      r5    -0.0197
   2668 C           12.8380     8.1713     7.3420 C       5      r5    -0.0198
   2669 C           13.6039     9.0369     8.1292 C       5      r5     0.1314
   2670 O          -18.5024    10.9068     8.8784 O       5      r5    -0.4665
   2671 C           17.7872    12.0603     8.1995 C       5      r5     0.0755
   2672 C           18.5205    12.6640     7.1380 C       5      r5    -0.0432
   2673 C          -17.4723    12.0218     7.0476 C       5      r5     0.0043
   2674 C          -17.4534    11.1009     8.0252 C       5      r5     0.1414
   2675 C           17.1619     5.8667     9.8619 C       5      r5     0.1310
   2676 C           15.8862     5.2890     9.7786 C       5      r5    -0.0433
   2677 C           16.0274     4.0664    10.3687 C       5      r5    -0.0473
   2678 C           17.4458     3.9003    10.6810 C       5      r5     0.0707
   2679 O           18.2582     5.2771    10.3501 O       5      r5    -0.4821
   2680 C           18.0304     2.9632    11.1984 C       0      r0    -0.0212
   2681 C          -13.4572    12.3572     3.0383 C       3      r3    -0.0334
   2682 H          -15.4757     7.6274     8.8122 H       0      r0     0.0874
   2683 H          -17.5817     6.7856     9.9884 H       0      r0     0.0975
   2684 H          -17.8797     9.9701     6.2153 H       0      r0     0.0799
   2685 H           17.3138     9.2470     7.6534 H       0      r0     0.1160
   2686 H          -17.3958     7.2572     3.6323 H       0      r0     0.0512
   2687 H          -15.8483    10.0331     9.1803 H       0      r0     0.1051
   2688 H          -15.3598    10.7398     7.6449 H       0      r0     0.1324
   2689 H           17.1669     8.0100    10.4546 H       0      r0     0.0639
   2690 H           16.2921     7.8180     9.1652 H       0      r0     0.1105
   2691 H           15.6977     6.6381     5.4878 H       0      r0     0.0864
   2692 H          -14.3922    10.5709     1.8712 H       0      r0     0.1059
   2693 H          -15.7439     8.4229     1.9861 H       0      r0     0.0334
   2694 H           13.5820     6.8051     5.7638 H       0      r0     0.1157
   2695 H           11.7077     7.9902     7.4143 H       0      r0     0.1243
   2696 H           18.2229    13.4859     6.5005 H       0      r0     0.0342
   2697 H          -16.7393    12.1823     6.2938 H       0      r0     0.1329
   2698 H           15.0121     5.7330     9.3007 H       0      r0     0.0528
   2699 H           15.2046     3.3334    10.5343 H       0      r0     0.0534
   2700 H           17.5266     2.0053    11.5012 H       0      r0     0.1109
   2701 H          -18.1645     2.9907    11.4402 H       0      r0     0.1258
   2702 H          -14.3708    18.7225    -2.3470 H       0      r0     0.3678
   2703 H          -13.6662    12.6381     6.9822 H       0      r0     0.3743
   2704 C            9.7640    -1.5056    -0.0946 C       0      r0     0.1754
   2705 C            9.2510    -0.6321    -1.2105 C       0      r0    -0.0208
   2706 C            9.3451    -0.8986    -2.4903 C       0      r0    -0.0248
   2707 C           10.0812    -1.9676    -3.1621 C       0      r0     0.1708
   2708 C            9.5866    -1.9938    -4.6820 C       0      r0    -0.0000
   2709 O           10.8855    -2.6089    -2.6357 O       0      r0    -0.4833
   2710 O           10.1941    -1.1465     0.9275 O       0      r0    -0.4822
   2711 C            9.4432    -3.3696    -5.1976 C       0      r0     0.1334
   2712 C            9.7667    -4.3838    -4.4243 C       0      r0     0.0118
   2713 C            9.6918    -5.5488    -5.1890 C       0      r0    -0.0010
   2714 C            9.2470    -5.3244    -6.5397 C       0      r0     0.0691
   2715 O            9.1653    -3.5381    -6.6158 O       0      r0    -0.4585
   2716 C            9.0056    -6.1153    -7.4137 C       0      r0    -0.0387
   2717 C            9.3963    -3.0103    -0.1762 C       0      r0     0.0380
   2718 C           13.3329    -5.1929     0.5988 C       0      r0     0.1388
   2719 C           13.0407    -3.9089     0.4681 C       0      r0    -0.0244
   2720 C           11.6733    -3.2842     0.2382 C       0      r0     0.0162
   2721 C           10.5809    -3.9151     0.0756 C       0      r0     0.1793
   2722 O           10.3235    -5.2482     0.1213 O       0      r0    -0.4686
   2723 H            8.7015     0.2553    -0.8691 H       0      r0     0.0594
   2724 H            8.8515    -0.2680    -3.1251 H       0      r0     0.0457
   2725 H            8.7338    -1.3418    -4.7723 H       0      r0     0.0687
   2726 H           10.2375    -1.3066    -5.3732 H       0      r0     0.1259
   2727 H           10.1129    -4.3284    -3.4057 H       0      r0     0.1288
   2728 H            9.8930    -6.5150    -4.7963 H       0      r0     0.1190
   2729 H            9.1995    -7.1842    -7.2368 H       0      r0     0.0624
   2730 H            8.8098    -5.8591    -8.4706 H       0      r0     0.0765
   2731 H            8.5614    -3.3115     0.4887 H       0      r0     0.1030
   2732 H            8.9200    -3.1680    -1.0919 H       0      r0     0.1121
   2733 H           14.0536    -3.4724     0.5886 H       0      r0     0.0779
   2734 H           11.7314    -2.2748    -0.0119 H       0      r0     0.0998
   2735 C           12.2855     5.8372    -2.9502 C       0      r0     0.1958
   2736 C           11.9392     4.4297    -2.7234 C       0      r0     0.0008
   2737 C           11.2799     4.0982    -1.6155 C       0      r0    -0.0387
   2738 C           10.7410     4.9116    -0.5294 C       0      r0     0.1680
   2739 C           10.2694     3.9214     0.6681 C       0      r0    -0.0098
   2740 O           10.6187     6.0449    -0.3482 O       0      r0    -0.5070
   2741 O           12.4849     6.3795    -3.9810 O       0      r0    -0.4683
   2742 C            8.8587     3.4004     0.4436 C       5      r5     0.1301
   2743 C            8.1660     3.7873    -0.7035 C       5      r5    -0.0262
   2744 C            6.8862     3.3246    -0.5271 C       5      r5    -0.0300
   2745 C            6.7903     2.6308     0.7642 C       5      r5     0.1060
   2746 O            8.1675     2.7134     1.4181 O       5      r5    -0.4692
   2747 C            5.6997     2.0481     1.2568 C       0      r0    -0.0195
   2748 C           12.9273     6.6570    -1.8181 C       0      r0     0.0279
   2749 C           12.1161    10.9063    -2.0525 C       0      r0     0.1500
   2750 C           12.3607    10.2118    -3.2724 C       0      r0    -0.0175
   2751 C           12.6201     8.8267    -3.2035 C       0      r0    -0.0018
   2752 C           12.7853     8.1997    -1.9027 C       0      r0     0.1904
   2753 O           12.8898     8.7469    -0.8648 O       0      r0    -0.4927
   2754 H           12.1281     3.6522    -3.4607 H       0      r0     0.0924
   2755 H           11.0340     3.0722    -1.4777 H       0      r0     0.0321
   2756 H           10.9515     3.1685     1.0652 H       0      r0     0.0735
   2757 H           10.2994     4.3716     1.6940 H       0      r0     0.0722
   2758 H            8.6131     4.3260    -1.5386 H       0      r0     0.0527
   2759 H            6.0592     3.4795    -1.1931 H       0      r0     0.0405
   2760 H            4.7592     2.1957     0.6957 H       0      r0     0.0899
   2761 H            5.7168     1.6969     2.2912 H       0      r0     0.0871
   2762 H           12.5807     6.4487    -0.7926 H       0      r0     0.1088
   2763 H           14.0247     6.5262    -1.8239 H       0      r0     0.0566
   2764 H           12.3602    10.7767    -4.1658 H       0      r0     0.0722
   2765 H           12.6645     8.2189    -4.1126 H       0      r0     0.1213
   2766 C            7.6239    11.7720     4.2937 C       5      r5     0.1483
   2767 O            6.7217    12.3201     5.1779 O       5      r5    -0.4748
   2768 C            7.3765    13.6860     5.3055 C       5      r5     0.1163
   2769 C            8.5553    13.8810     4.5664 C       5      r5    -0.0187
   2770 C            8.7646    12.6002     4.0410 C       5      r5     0.0131
   2771 C            7.5191    10.5055     3.7501 C       0      r0     0.0044
   2772 C            7.4384    15.9472     6.5105 C       0      r0     0.1658
   2773 O            6.7569    17.0181     6.8589 O       0      r0    -0.4526
   2774 C            9.2009    18.0343     7.6668 C       0      r0     0.0356
   2775 C            9.6469    16.9079     6.8937 C       0      r0    -0.0243
   2776 C            8.8293    15.8402     6.5900 C       0      r0    -0.0076
   2777 C            6.8249    14.7175     6.0529 C       0      r0     0.0332
   2778 C            8.4131     9.9302     2.7714 C       5      r5     0.1385
   2779 C            7.9166     8.7439     2.1866 C       5      r5    -0.0290
   2780 C            8.8663     8.1364     1.3517 C       5      r5    -0.0321
   2781 C            9.8592     9.1592     1.3746 C       5      r5     0.0840
   2782 O            9.6289    10.4104     2.4903 O       5      r5    -0.4680
   2783 C           10.7948     8.8412     0.6011 C       0      r0    -0.0031
   2784 H            9.1409    14.7758     4.4542 H       0      r0     0.0508
   2785 H            9.5827    12.3599     3.4406 H       0      r0     0.1284
   2786 H            6.6444     9.9522     3.9794 H       0      r0     0.0522
   2787 H           10.7252    16.8668     6.7570 H       0      r0     0.0628
   2788 H            9.3054    14.9312     6.2638 H       0      r0     0.1034
   2789 H            5.8274    14.4815     6.4701 H       0      r0     0.1346
   2790 H            6.9613     8.2139     2.4826 H       0      r0     0.0466
   2791 H            8.9384     7.1744     0.8105 H       0      r0     0.0861
   2792 H           10.8608     7.9015     0.0680 H       0      r0     0.1332
   2793 H           11.6296     9.5090     0.5148 H       0      r0     0.1318
   2794 C           -2.0860     9.7046     9.2482 C       5      r5     0.1602
   2795 O           -1.5431    10.9630     8.8705 O       5      r5    -0.4710
   2796 C           -1.0582    11.3014    10.3221 C       5      r5     0.1019
   2797 C           -1.2953    10.3718    11.3087 C       5      r5    -0.0381
   2798 C           -1.9433     9.3251    10.5975 C       5      r5     0.0023
   2799 C           -2.8230     9.0427     8.2536 C       0      r0     0.0103
   2800 C           -0.1349    13.1288    11.7022 C       0      r0     0.1240
   2801 O            0.7778    14.2603    11.7203 O       0      r0    -0.4826
   2802 C            0.4884    13.5875    14.7289 C       0      r0     0.0014
   2803 C           -0.7133    13.0928    14.2401 C       0      r0    -0.0241
   2804 C           -0.8436    12.7247    12.8480 C       0      r0    -0.0184
   2805 C           -0.3596    12.5193    10.4571 C       0      r0     0.0199
   2806 C           -3.3279     7.7134     8.4535 C       5      r5     0.1090
   2807 C           -4.1509     7.1137     7.4771 C       5      r5    -0.0254
   2808 C           -4.4231     5.8829     8.0035 C       5      r5    -0.0226
   2809 C           -3.5428     5.6308     9.1425 C       5      r5     0.1037
   2810 O           -2.8979     6.9497     9.6141 O       5      r5    -0.4875
   2811 C           -3.4058     4.4677     9.7038 C       0      r0    -0.0350
   2812 H           -1.0852    10.4512    12.3449 H       0      r0     0.0402
   2813 H           -2.2569     8.3943    11.0334 H       0      r0     0.0904
   2814 H           -2.9118     9.6150     7.3227 H       0      r0     0.0645
   2815 H           -1.4714    12.8434    14.9463 H       0      r0     0.0702
   2816 H           -1.7623    12.2308    12.5237 H       0      r0     0.0666
   2817 H           -0.0092    13.0253     9.5567 H       0      r0     0.1545
   2818 H           -4.4877     7.5344     6.5201 H       0      r0     0.1034
   2819 H           -5.0496     5.1873     7.5630 H       0      r0     0.0476
   2820 H           -4.0763     3.6695     9.3919 H       0      r0     0.1001
   2821 H           -2.6610     4.2829    10.4278 H       0      r0     0.0528
   2822 C            8.3799    17.8899    13.7415 C       5      r5     0.1090
   2823 O            7.3383    16.9190    13.1907 O       5      r5    -0.4801
   2824 C            6.5912    17.9005    12.4662 C       5      r5     0.1346
   2825 C            6.9118   -18.7414    12.6142 C       5      r5    -0.0238
   2826 C            8.0412   -18.7455    13.3407 C       5      r5    -0.0052
   2827 C            9.3244    17.6433    14.6093 C       0      r0    -0.0294
   2828 C            5.3488    17.6291    11.8437 C       0      r0    -0.0073
   2829 H            6.3796   -17.9516    12.1619 H       0      r0     0.0594
   2830 H            8.5748   -17.8690    13.6985 H       0      r0     0.1116
   2831 H           10.1674    17.7380    15.2904 H       0      r0     0.0579
   2832 H            4.8172    18.3956    11.3337 H       0      r0     0.0393
   2833 C            3.6556    17.0267    -4.0258 C       5      r5     0.0975
   2834 O            5.0605    16.6598    -4.7234 O       5      r5    -0.4453
   2835 C            4.2367    15.5662    -5.5830 C       5      r5     0.0944
   2836 C            2.9272    15.2718    -5.3373 C       5      r5    -0.0369
   2837 C            2.5334    16.2121    -4.3626 C       5      r5    -0.0288
   2838 C            3.4681    17.9402    -3.0943 C       0      r0    -0.0158
   2839 C            4.8529    14.7609    -6.5893 C       0      r0    -0.0211
   2840 H            2.3629    14.5547    -5.8709 H       0      r0     0.0534
   2841 H            1.5982    16.3773    -3.9084 H       0      r0     0.0757
   2842 H            3.2287    18.5658    -2.2732 H       0      r0     0.0760
   2843 H            4.3523    14.0141    -7.1277 H       0      r0     0.0517
   2844 C            8.3529   -16.5140    -1.8748 C       5      r5     0.1291
   2845 O            7.2426   -17.5574    -1.9707 O       5      r5    -0.4798
   2846 C            6.1588   -16.6250    -1.5073 C       5      r5     0.1292
   2847 C            6.4931   -15.2251    -1.3597 C       5      r5    -0.0189
   2848 C            7.7763   -15.1538    -1.5158 C       5      r5    -0.0304
   2849 C            9.5064   -16.7464    -2.1247 C       0      r0     0.1356
   2850 C            4.9048   -16.9116    -1.1942 C       0      r0     0.0034
   2851 H            5.8370   -14.3931    -1.0012 H       0      r0     0.1207
   2852 H            8.3565   -14.2745    -1.4838 H       0      r0     0.0487
   2853 H            9.8706   -17.7617    -2.3460 H       0      r0     0.0986
   2854 H            3.9294   -16.9486    -0.8798 H       0      r0     0.0768
   2855 C            3.8173     2.6580   -14.8994 C       5      r5     0.1317
   2856 O            2.6998     2.1455   -14.1750 O       5      r5    -0.4872
   2857 C            3.3797     2.4713   -12.7384 C       5      r5     0.0835
   2858 C            4.7228     2.9929   -12.9448 C       5      r5    -0.0172
   2859 C            5.0018     3.0965   -14.2782 C       5      r5    -0.0159
   2860 C            3.7508     2.8961   -16.3287 C       0      r0    -0.0061
   2861 C            2.9399     2.2065   -11.5638 C       0      r0    -0.0410
   2862 H            5.4246     3.2800   -12.2098 H       0      r0     0.0513
   2863 H            5.8958     3.5318   -14.7357 H       0      r0     0.0598
   2864 H            4.6147     3.3034   -16.8448 H       0      r0     0.0556
   2865 H            2.5688     1.9328   -10.5774 H       0      r0     0.0587
   2866 C           -3.0800    13.1745     1.7784 C       6      r6    -0.0326
   2867 C           -3.5272    11.8973     1.9939 C       6      r6    -0.0450
   2868 C           -2.6312    10.8018     1.6964 C       3      r3     0.0545
   2869 C           -1.5431    11.0066     0.6456 C       3      r3     0.1569
   2870 C            0.0495    13.0313     0.5391 C       5      r5     0.1703
   2871 O            0.0089    14.2216     1.1722 O       5      r5    -0.4805
   2872 C           -1.3428    14.6944     0.9348 C       5      r5     0.1190
   2873 C           -2.2044    13.5216     0.6006 C       5      r5    -0.0235
   2874 C           -1.2415    12.4696     0.0253 C       5      r5     0.0062
   2875 C           -1.6806    15.9656     1.1305 C       0      r0     0.0135
   2876 C           -3.4011    14.2513     2.7842 C       0      r0    -0.0220
   2877 C           -1.8466     9.9582    -0.6138 C       0      r0    -0.0201
   2878 C            1.2520    12.3720     0.2556 C       0      r0     0.0197
   2879 O           -0.9140    10.6031     1.7016 O       3      r3    -0.4423
   2880 C           -4.9507    17.6289     0.4271 C       5      r5     0.2224
   2881 C           -4.6964    16.6926    -0.7494 C       5      r5     0.0020
   2882 C           -3.5129    16.1332    -0.6050 C       5      r5    -0.0189
   2883 C           -2.9714    16.5857     0.6406 C       5      r5     0.1405
   2884 O           -3.5595    17.4918     1.4156 O       5      r5    -0.4570
   2885 O            0.6272    10.9381    -1.7070 O       5      r5    -0.4839
   2886 C            1.5214    11.3798    -0.7308 C       5      r5     0.1313
   2887 C            2.7006    10.5946    -0.5685 C       5      r5    -0.0273
   2888 C            2.7564     9.5316    -1.4773 C       5      r5    -0.0227
   2889 C            1.4930     9.7462    -2.1294 C       5      r5     0.1096
   2890 O           -3.3623    14.2906     5.2689 O       5      r5    -0.4829
   2891 C           -2.3535    13.4794     6.2843 C       5      r5     0.0928
   2892 C           -1.3446    12.8545     5.4703 C       5      r5    -0.0193
   2893 C           -1.6251    13.1061     4.1561 C       5      r5    -0.0094
   2894 C           -2.7515    13.8758     4.1598 C       5      r5     0.1396
   2895 C           -2.4912     8.6390    -0.2050 C       5      r5     0.1337
   2896 C           -3.6067     8.2075    -0.9171 C       5      r5    -0.0419
   2897 C           -4.0778     7.1124    -0.2764 C       5      r5    -0.0318
   2898 C           -3.2307     6.7535     0.9171 C       5      r5     0.0705
   2899 O           -2.0751     7.9648     0.8758 O       5      r5    -0.4697
   2900 C           -2.4105    13.4988     7.5996 C       0      r0    -0.0031
   2901 C            1.3404     8.8244    -2.9924 C       0      r0    -0.0262
   2902 H           -4.3786    11.7779     2.6596 H       0      r0     0.0607
   2903 H           -2.8923     9.8484     2.1253 H       0      r0     0.1121
   2904 H           -2.9354    13.8249    -0.1889 H       0      r0     0.0381
   2905 H           -1.3129    12.3756    -1.0584 H       0      r0     0.0554
   2906 H           -0.8763    16.6024     1.4728 H       0      r0     0.1011
   2907 H           -3.1150    15.2420     2.4037 H       0      r0     0.0749
   2908 H           -4.5043    14.4604     2.7741 H       0      r0     0.1067
   2909 H           -2.3399    10.4694    -1.4200 H       0      r0     0.0193
   2910 H           -0.8084     9.6914    -0.9423 H       0      r0     0.1170
   2911 H            2.0969    12.6223     0.8867 H       0      r0     0.0671
   2912 H           -5.4018    16.6067    -1.5960 H       0      r0     0.0942
   2913 H           -3.0257    15.4634    -1.2675 H       0      r0     0.0502
   2914 H            3.4716    10.7956     0.1726 H       0      r0     0.0653
   2915 H            3.4938     8.7511    -1.6781 H       0      r0     0.0912
   2916 H           -0.5529    12.1562     5.7976 H       0      r0     0.0674
   2917 H           -1.1472    12.6889     3.2874 H       0      r0     0.0984
   2918 H           -3.9133     8.7084    -1.8456 H       0      r0     0.0239
   2919 H           -4.9378     6.6082    -0.6097 H       0      r0     0.0555
   2920 H           -1.7595    12.9167     8.2092 H       0      r0     0.1245
   2921 H           -3.2045    14.1134     8.0090 H       0      r0     0.1080
   2922 H            2.0614     8.0258    -3.1132 H       0      r0     0.1005
   2923 H            0.4851     8.7876    -3.6929 H       0      r0     0.0606
   2924 C           -8.8106     5.4703     2.4095 C       5      r5     0.0963
   2925 C           -9.2154     5.4003     0.9898 C       5      r5    -0.0229
   2926 C           -9.7547     4.2029     0.9992 C       5      r5    -0.0214
   2927 C           -9.7570     3.5971     2.3225 C       5      r5     0.1265
   2928 C           -8.1007     2.4591     3.7898 C       5      r5     0.1645
   2929 O           -7.6336     3.2495     4.8003 O       5      r5    -0.4647
   2930 C           -7.1268     4.4361     4.1461 C       5      r5     0.1349
   2931 C           -7.5372     4.5475     2.7007 C       5      r5     0.0036
   2932 C           -8.2756     3.1874     2.4762 C       5      r5     0.0211
   2933 C           -6.2911     5.3242     4.7232 C       0      r0    -0.0002
   2934 C           -8.6817     6.9632     2.9128 C       0      r0    -0.0176
   2935 C          -10.7750     2.3722     2.3962 C       0      r0    -0.0119
   2936 C           -8.0577     1.0871     3.8490 C       0      r0     0.0029
   2937 O           -9.8645     4.5917     3.3662 O       5      r5    -0.4630
   2938 C           -4.0223     7.8913     3.2132 C       5      r5     0.1138
   2939 C           -4.0629     6.9000     2.1735 C       5      r5     0.0181
   2940 C           -4.9544     5.9747     2.7550 C       5      r5    -0.0103
   2941 C           -5.4742     6.3307     3.9984 C       5      r5     0.1410
   2942 O           -4.9580     7.4601     4.5702 O       5      r5    -0.4726
   2943 O           -8.5528     0.6748     1.3131 O       5      r5    -0.4897
   2944 C           -8.3066     0.2797     2.6803 C       5      r5     0.1025
   2945 C           -8.2291    -1.0969     2.9053 C       5      r5    -0.0336
   2946 C           -8.2165    -1.8325     1.6891 C       5      r5    -0.0424
   2947 C           -8.4198    -0.7462     0.7972 C       5      r5     0.1025
   2948 O           -7.2847     7.4557     0.8219 O       5      r5    -0.4684
   2949 C           -6.6330     8.7707     0.4158 C       5      r5     0.1140
   2950 C           -6.6354     9.6758     1.5450 C       5      r5    -0.0157
   2951 C           -7.4366     9.0829     2.5385 C       5      r5    -0.0015
   2952 C           -7.6766     7.8349     2.1098 C       5      r5     0.1337
   2953 C          -12.1830     2.7428     1.8335 C       5      r5     0.1320
   2954 C          -13.0390     3.3435     2.7299 C       5      r5    -0.0234
   2955 C          -14.0646     3.8140     1.9899 C       5      r5    -0.0420
   2956 C          -13.8510     3.5152     0.5837 C       5      r5     0.0950
   2957 O          -12.5252     2.6560     0.5261 O       5      r5    -0.4761
   2958 C           -6.1448     9.0787    -0.7741 C       0      r0    -0.0392
   2959 C           -8.4209    -1.2454    -0.4118 C       0      r0    -0.0518
   2960 H           -9.0240     6.0507     0.1825 H       0      r0     0.0842
   2961 H          -10.2252     3.8066     0.0863 H       0      r0     0.0729
   2962 H           -6.6877     4.7592     2.1296 H       0      r0     0.0405
   2963 H           -7.8869     2.6103     1.6648 H       0      r0     0.0801
   2964 H           -6.2359     5.1194     5.7769 H       0      r0     0.0731
   2965 H           -9.6003     7.5850     2.9508 H       0      r0     0.0489
   2966 H           -8.4276     6.8962     3.9747 H       0      r0     0.0596
   2967 H          -10.2925     1.4678     1.9894 H       0      r0     0.0980
   2968 H          -10.9009     2.0907     3.4634 H       0      r0     0.0590
   2969 H           -7.8780     0.5884     4.7623 H       0      r0     0.0803
   2970 H           -2.8628     5.7310     0.9521 H       0      r0     0.0777
   2971 H           -5.1097     4.9820     2.3216 H       0      r0     0.0301
   2972 H           -8.1887    -1.5668     3.9131 H       0      r0     0.0558
   2973 H           -8.2080    -2.8808     1.5873 H       0      r0     0.0635
   2974 H           -6.2128    10.6291     1.6142 H       0      r0     0.0614
   2975 H           -7.8808     9.4784     3.5102 H       0      r0     0.1199
   2976 H          -12.9529     3.4784     3.8186 H       0      r0     0.0863
   2977 H          -14.9028     4.3236     2.4172 H       0      r0     0.0356
   2978 H           -5.6997     9.9981    -1.0285 H       0      r0     0.0260
   2979 H           -6.0896     8.4225    -1.5532 H       0      r0     0.0612
   2980 H           -8.2406    -2.3296    -0.5189 H       0      r0     0.0275
   2981 H           -8.5526    -0.6156    -1.2734 H       0      r0     0.0782
   2982 C            2.4858    14.6273     5.8441 C       6      r6     0.1365
   2983 C            2.2460    13.1845     6.1713 C       6      r6    -0.0077
   2984 C            2.8744    12.1064     5.5576 C       6      r6    -0.0280
   2985 C            3.5905    12.4009     4.3580 C       6      r6    -0.0038
   2986 C            4.6600    14.4529     3.2007 C       5      r5     0.1594
   2987 O            4.5980    15.7348     3.6657 O       5      r5    -0.4906
   2988 C            3.0719    15.9459     3.7345 C       5      r5     0.1341
   2989 C            2.3812    14.7107     4.2267 C       5      r5     0.0008
   2990 C            3.3860    13.6335     3.5686 C       5      r5    -0.0024
   2991 C            2.4458    17.1166     3.4571 C       0      r0     0.0513
   2992 C            1.2758    15.5189     6.3558 C       0      r0     0.0271
   2993 C            4.0614    11.1669     3.9802 C       0      r0    -0.0112
   2994 C            5.7363    14.0411     2.4038 C       0      r0     0.0130
   2995 O            3.6133    15.3220     6.3226 O       0      r0    -0.5614
   2996 C           -1.1621    17.3243     3.7912 C       5      r5     0.1202
   2997 C           -0.7360    18.6123     3.2150 C       5      r5    -0.0155
   2998 C            0.6116    18.6108     3.0533 C       5      r5     0.0016
   2999 C            1.0090    17.3343     3.4658 C       5      r5     0.1572
   3000 O            0.0671    16.4203     3.9903 O       5      r5    -0.4913
   3001 O            4.9566    11.9613     1.2916 O       0      r0    -0.5912
   3002 C            5.8905    12.9115     1.5722 C       0      r0     0.1283
   3003 C            7.2305    12.9536     1.2750 C       0      r0    -0.0359
   3004 C            7.8257    12.0403     0.2926 C       0      r0    -0.0412
   3005 C            7.0791    11.2452    -0.6016 C       0      r0    -0.0448
   3006 O            0.5365    14.1704     8.1376 O       0      r0    -0.5090
   3007 C            1.0028    15.2581    10.8046 C       0      r0     0.1794
   3008 C            1.3196    16.4105    10.0707 C       0      r0    -0.0127
   3009 C            1.3578    16.4111     8.6116 C       0      r0     0.0068
   3010 C            0.9354    15.2685     7.8802 C       0      r0     0.1882
   3011 C            4.2231    10.0759     4.9085 C       3      r3    -0.0155
   3012 C            4.3180     9.6037     6.2004 C       3      r3    -0.0315
   3013 C            5.6994     7.9862     5.7418 C       0      r0     0.0074
   3014 C            6.7351     8.5184     6.8600 C       0      r0     0.1305
   3015 O            7.3242     7.4815     7.5677 O       0      r0    -0.5665
   3016 C            6.9654     9.6987     7.0203 C       0      r0    -0.0044
   3017 C           -2.3815    17.1202     4.1714 C       0      r0    -0.0005
   3018 H            1.6182    13.0090     7.0504 H       0      r0     0.1221
   3019 H            2.6107    11.1232     5.9443 H       0      r0     0.0948
   3020 H            1.4404    14.7250     3.8034 H       0      r0     0.1010
   3021 H            3.2225    13.4376     2.5244 H       0      r0     0.0748
   3022 H            3.2506    17.7637     3.0580 H       0      r0     0.1272
   3023 H            1.5442    16.5320     6.0875 H       0      r0     0.1153
   3024 H            0.3649    15.2662     5.8687 H       0      r0     0.0917
   3025 H            4.9809    11.7812     0.3061 H       0      r0     0.2388
   3026 H            4.4706    11.0750     2.9864 H       0      r0     0.1236
   3027 H            6.4531    14.8245     2.5392 H       0      r0     0.0775
   3028 H           -1.2592   -18.4979     2.9938 H       0      r0     0.0459
   3029 H            1.2249   -18.6003     2.7469 H       0      r0     0.0775
   3030 H            7.8862    13.6797     1.7527 H       0      r0     0.0396
   3031 H            8.8447    11.8567     0.1565 H       0      r0     0.0744
   3032 H            1.6977    17.2823    10.6483 H       0      r0     0.0475
   3033 H            1.7507    17.2677     8.0514 H       0      r0     0.0961
   3034 H            4.4007     9.9869     7.1694 H       0      r0     0.0725
   3035 H            2.1775     3.9490     3.0976 H       0      r0     0.1334
   3036 H            6.4843    10.5058     6.4571 H       0      r0     0.0948
   3037 H            7.6788     9.9541     7.8279 H       0      r0     0.1064
   3038 H           -3.1874    17.8481     4.1951 H       0      r0     0.1218
   3039 H           -2.6161    16.1568     4.6500 H       0      r0     0.1080
   3040 C            1.3661     6.4830     2.6564 C       6      r6     0.0827
   3041 C            0.5819     7.1181     1.5647 C       6      r6    -0.0108
   3042 C            0.2723     6.5592     0.3545 C       6      r6    -0.0185
   3043 C            1.0343     5.4711    -0.0857 C       6      r6    -0.0022
   3044 C            2.7720     4.2044    -0.0076 C       5      r5     0.1574
   3045 O            2.6125     3.4055     1.0225 O       5      r5    -0.4669
   3046 C            2.8608     4.3343     2.4042 C       5      r5     0.0930
   3047 C            2.5740     5.8175     1.9315 C       5      r5    -0.0047
   3048 C            2.4483     5.6322     0.3053 C       5      r5    -0.0040
   3049 C            4.2146     4.2035     3.0218 C       0      r0    -0.0109
   3050 C            1.8756     7.5980     3.6450 C       0      r0     0.0067
   3051 C            0.5366     4.6186    -1.3168 C       0      r0    -0.0184
   3052 C            3.3367     3.8537    -1.2831 C       0      r0    -0.0096
   3053 O            0.5792     5.4228     3.6294 O       0      r0    -0.4910
   3054 C            5.5049     6.7380     5.1120 C       5      r5     0.1137
   3055 C            6.3553     5.6832     5.4626 C       5      r5    -0.0274
   3056 C            5.9426     4.7069     4.5544 C       5      r5    -0.0378
   3057 C            4.8377     5.1629     3.7862 C       5      r5     0.1240
   3058 O            4.3994     6.4768     4.0619 O       5      r5    -0.4953
   3059 O            3.0595     6.1252    -2.4164 O       5      r5    -0.4673
   3060 C            3.2996     4.7323    -2.3968 C       5      r5     0.1216
   3061 C            3.7679     3.9753    -3.4043 C       5      r5    -0.0410
   3062 C            3.8395     4.9910    -4.4577 C       5      r5    -0.0234
   3063 C            3.4393     6.2316    -3.9506 C       5      r5     0.1375
   3064 O            1.1188     9.2478     5.3486 O       5      r5    -0.4544
   3065 C           -0.4486     9.5607     5.8188 C       5      r5     0.1226
   3066 C           -1.3821     8.8576     5.0636 C       5      r5    -0.0118
   3067 C           -0.5496     8.1037     4.1824 C       5      r5     0.0260
   3068 C            0.7689     8.3549     4.3687 C       5      r5     0.1616
   3069 C           -0.9388     4.1256    -1.1775 C       5      r5     0.1364
   3070 C           -1.7886     4.2798    -2.2208 C       5      r5    -0.0074
   3071 C           -3.0247     3.8295    -1.7805 C       5      r5    -0.0119
   3072 C           -2.8956     3.3901    -0.4233 C       5      r5     0.0903
   3073 O           -1.3667     3.5524    -0.0135 O       5      r5    -0.4635
   3074 C           -3.8439     2.8042     0.3222 C       0      r0    -0.0531
   3075 C            4.5585     8.6609     5.1586 C       3      r3     0.0090
   3076 H           -0.0122     7.9758     1.8727 H       0      r0     0.1173
   3077 H           -0.5716     6.9021    -0.1500 H       0      r0     0.1029
   3078 H            3.5174     6.3234     2.1652 H       0      r0     0.0876
   3079 H            2.9543     6.4112    -0.2618 H       0      r0     0.0924
   3080 H            4.5673     3.2390     3.0563 H       0      r0     0.0545
   3081 H            2.5268     7.0589     4.3914 H       0      r0     0.1322
   3082 H            2.6667     8.2395     3.2401 H       0      r0     0.0654
   3083 H            0.8202     5.1878    -2.2492 H       0      r0     0.0977
   3084 H            1.2123     3.8212    -1.4937 H       0      r0     0.0640
   3085 H            3.7555     2.8656    -1.4665 H       0      r0     0.0494
   3086 H            7.1554     5.7801     6.1448 H       0      r0     0.0818
   3087 H            6.4188     3.7294     4.4565 H       0      r0     0.0377
   3088 H            4.0176     2.9514    -3.4741 H       0      r0     0.0280
   3089 H            4.2489     4.8380    -5.4270 H       0      r0     0.0332
   3090 H           -2.4075     8.8703     5.0821 H       0      r0     0.0618
   3091 H           -0.9728     7.2900     3.5544 H       0      r0     0.0994
   3092 H           -1.5115     4.7888    -3.1563 H       0      r0     0.1016
   3093 H           -3.9552     3.9075    -2.3320 H       0      r0     0.1039
   3094 H           -4.8238     2.8431    -0.1500 H       0      r0     0.0314
   3095 H           -3.6771     2.4802     1.3385 H       0      r0     0.0468
   3096 H            4.1457    15.5088     5.5108 H       0      r0     0.3492
   3097 H            8.4030     7.5756     7.4896 H       0      r0     0.3491
   3098 C           -5.4591    13.1440    17.9737 C       0      r0     0.1678
   3099 C           -4.9237    14.3788    17.5030 C       0      r0    -0.0115
   3100 C           -5.5004    15.6351    17.4257 C       0      r0    -0.0295
   3101 C           -6.7009    16.1528    17.9331 C       0      r0     0.1459
   3102 C           -7.0174    17.4574    17.3070 C       0      r0    -0.0145
   3103 O           -7.4446    15.7428    18.9337 O       0      r0    -0.4807
   3104 O           -4.8755    12.1282    17.9604 O       0      r0    -0.4887
   3105 C           -7.3636    17.2744    15.8055 C       5      r5     0.1350
   3106 C           -8.7402    17.2024    15.5146 C       5      r5    -0.0004
   3107 C           -8.7926    17.0124    14.1559 C       5      r5    -0.0123
   3108 C           -7.4059    16.8157    13.7015 C       5      r5     0.1048
   3109 O           -6.3902    17.1743    14.8835 O       5      r5    -0.4729
   3110 C           -7.0913    16.5257    12.5572 C       0      r0    -0.0279
   3111 C           -7.0168    12.9599    18.3987 C       0      r0     0.0209
   3112 C           -7.5824    12.9929   -15.8684 C       5      r5     0.1255
   3113 C           -6.1923    12.7940   -16.0176 C       5      r5    -0.0291
   3114 C           -5.9077    12.7335   -17.4487 C       5      r5    -0.0065
   3115 C           -7.0125    12.9064   -18.0533 C       5      r5     0.1430
   3116 O           -8.3674    13.0394   -17.2582 O       5      r5    -0.4529
   3117 H           -3.9342    14.4262    17.1111 H       0      r0     0.0842
   3118 H           -5.0292    16.5705    17.0058 H       0      r0     0.0531
   3119 H           -7.8050    17.8420    17.8950 H       0      r0     0.0711
   3120 H           -6.2036    18.2450    17.4287 H       0      r0     0.0455
   3121 H           -9.5582    17.3117    16.2221 H       0      r0     0.1123
   3122 H           -9.6147    17.0103    13.5080 H       0      r0     0.0588
   3123 H           -7.7936    16.3482    11.7309 H       0      r0     0.0492
   3124 H           -6.0462    16.3993    12.2790 H       0      r0     0.0587
   3125 H           -7.6563    13.7279    17.9557 H       0      r0     0.0826
   3126 H           -7.5874    12.1010    18.0378 H       0      r0     0.1088
   3127 H           -5.5310    12.7144   -15.2025 H       0      r0     0.0367
   3128 H           -4.9344    12.7214   -17.9218 H       0      r0     0.0819
   3129 C           -5.1513     0.2976    -1.7535 C       0      r0     0.1636
   3130 C           -5.4954     0.0389    -0.3466 C       0      r0    -0.0372
   3131 C           -4.9061    -0.7788     0.5429 C       0      r0    -0.0170
   3132 C           -3.7864    -1.6850     0.3719 C       0      r0     0.1833
   3133 C           -3.3181    -2.1843    -1.0814 C       0      r0     0.0389
   3134 O           -3.2378    -2.2152     1.2522 O       0      r0    -0.5001
   3135 O           -4.2297    -0.0177    -2.4136 O       0      r0    -0.5028
   3136 C           -4.4360    -3.1027    -1.5814 C       5      r5     0.1434
   3137 C           -5.2849    -3.7076    -0.6068 C       5      r5    -0.0296
   3138 C           -5.8887    -4.7077    -1.2618 C       5      r5    -0.0277
   3139 C           -5.4393    -4.6370    -2.6848 C       5      r5     0.0971
   3140 O           -4.3605    -3.5036    -2.8638 O       5      r5    -0.4688
   3141 C           -5.8319    -5.3575    -3.5794 C       0      r0    -0.0284
   3142 C           -6.1999     1.0606    -2.5528 C       0      r0     0.0201
   3143 C           -8.9176    -2.1117    -4.4115 C       0      r0     0.1382
   3144 C           -7.5114    -2.1165    -4.1749 C       0      r0    -0.0551
   3145 C           -6.7863    -1.0210    -3.5154 C       0      r0    -0.0274
   3146 C           -7.2039     0.1836    -3.2054 C       0      r0     0.1304
   3147 O           -8.4025     0.7633    -3.4126 O       0      r0    -0.5712
   3148 H           -6.3844     0.5062     0.1090 H       0      r0     0.0616
   3149 H           -5.3429    -0.8821     1.5096 H       0      r0     0.0593
   3150 H           -3.1315    -1.3287    -1.8318 H       0      r0     0.1502
   3151 H           -2.2987    -2.6562    -1.0254 H       0      r0     0.1394
   3152 H           -5.3140    -3.5279     0.4287 H       0      r0     0.0543
   3153 H           -6.6115    -5.3210    -0.8368 H       0      r0     0.0958
   3154 H           -6.4820    -6.1191    -3.4110 H       0      r0     0.0430
   3155 H           -5.5121    -5.1839    -4.5989 H       0      r0     0.0700
   3156 H           -6.7276     1.7576    -1.8029 H       0      r0     0.0644
   3157 H           -5.5637     1.7334    -3.2199 H       0      r0     0.1413
   3158 H           -7.1635    -3.1719    -4.4804 H       0      r0     0.0426
   3159 H           -5.7745    -1.3522    -3.3140 H       0      r0     0.1052
   3160 C          -14.5500    -7.4086   -17.3547 C       5      r5     0.1552
   3161 O          -14.3393    -6.6400   -18.5061 O       5      r5    -0.4959
   3162 C          -12.8240    -6.3411   -18.1743 C       5      r5     0.0927
   3163 C          -12.3203    -6.9040   -17.0108 C       5      r5    -0.0389
   3164 C          -13.4292    -7.6022   -16.4961 C       5      r5     0.0006
   3165 C          -15.8303    -7.9600   -17.0950 C       0      r0     0.0155
   3166 C          -10.7909    -5.1276    18.8550 C       5      r5     0.1212
   3167 O          -10.3307    -4.2616    17.8665 O       5      r5    -0.4723
   3168 C           -8.7901    -4.3297    18.3110 C       5      r5     0.1225
   3169 C           -8.5336    -5.2685   -18.5947 C       5      r5    -0.0148
   3170 C           -9.8395    -5.7023   -18.2298 C       5      r5    -0.0156
   3171 C          -12.1634    -5.5213    18.8694 C       0      r0    -0.0033
   3172 C          -16.1595    -8.8939   -16.1071 C       5      r5     0.1214
   3173 C          -17.5071    -9.4016   -16.1505 C       5      r5    -0.0214
   3174 C          -17.4854   -10.3247   -15.1460 C       5      r5    -0.0258
   3175 C          -16.1969   -10.3358   -14.4483 C       5      r5     0.1078
   3176 O          -15.2525    -9.3433   -15.1061 O       5      r5    -0.4704
   3177 C          -15.9906   -11.0849   -13.3842 C       0      r0    -0.0394
   3178 H          -11.3393    -6.7807   -16.6307 H       0      r0     0.0420
   3179 H          -13.5075    -8.0960   -15.5322 H       0      r0     0.0978
   3180 H          -16.6160    -7.6814   -17.7494 H       0      r0     0.0592
   3181 H           -7.5877    -5.6894   -18.2675 H       0      r0     0.0568
   3182 H           -9.9931    -6.4006   -17.4467 H       0      r0     0.0658
   3183 H          -12.6490    -5.2277    17.9004 H       0      r0     0.0789
   3184 H          -18.3058    -9.0891   -16.8124 H       0      r0     0.0927
   3185 H          -18.2951   -10.9458   -14.8737 H       0      r0     0.0477
   3186 H          -16.8689   -11.5887   -13.0251 H       0      r0     0.0433
   3187 H          -15.0873   -11.1751   -12.8880 H       0      r0     0.0878
   3188 C           14.8173     2.3030    17.4564 C       5      r5     0.1570
   3189 O           15.1678     1.0752    17.9478 O       5      r5    -0.4614
   3190 C           16.6964     1.1922    17.4888 C       5      r5     0.0946
   3191 C           17.0820     2.4048    16.9631 C       5      r5    -0.0364
   3192 C           15.8941     3.1373    16.9690 C       5      r5     0.0111
   3193 C           13.4919     2.8038    17.5053 C       0      r0     0.0219
   3194 C          -18.4291    -0.2510    17.4358 C       0      r0     0.1370
   3195 O          -17.7219    -1.1184    18.2311 O       0      r0    -0.5643
   3196 C          -15.7535    -0.5717    16.3436 C       0      r0     0.0082
   3197 C          -16.6925     0.2212    15.8193 C       0      r0    -0.0235
   3198 C          -18.0198     0.3921    16.3074 C       0      r0    -0.0200
   3199 C           17.4415     0.0645    17.7778 C       0      r0     0.0135
   3200 C           13.0476     4.0546    16.9993 C       5      r5     0.1497
   3201 C           11.6850     4.3609    17.2538 C       5      r5     0.0001
   3202 C           11.3425     5.6670    16.8075 C       5      r5    -0.0247
   3203 C           12.5386     5.9350    16.0878 C       5      r5     0.0986
   3204 O           13.7725     4.8408    16.1702 O       5      r5    -0.4541
   3205 C           12.4287     7.0381    15.4391 C       0      r0    -0.0443
   3206 H           18.0113     2.7274    16.6881 H       0      r0     0.0349
   3207 H           15.7576     4.1742    16.7406 H       0      r0     0.1407
   3208 H           12.8179     2.2644    18.1360 H       0      r0     0.0792
   3209 H          -16.3998     0.8914    15.0008 H       0      r0     0.1001
   3210 H          -18.5990     1.0495    15.6669 H       0      r0     0.0826
   3211 H           17.0624    -0.7281    18.3744 H       0      r0     0.0976
   3212 H           11.0917     3.6824    17.8768 H       0      r0     0.0981
   3213 H           10.4229     6.2510    16.9750 H       0      r0     0.0561
   3214 H           11.4127     7.4256    15.4258 H       0      r0     0.0447
   3215 H           13.2363     7.4504    14.9502 H       0      r0     0.0702
   3216 C           -4.9152    -0.6750    -8.5767 C       5      r5     0.0838
   3217 O           -6.1394    -1.4644    -9.1700 O       5      r5    -0.4936
   3218 C           -6.7604    -1.5683    -7.9112 C       5      r5     0.1370
   3219 C           -6.2110    -0.7870    -6.8514 C       5      r5    -0.0458
   3220 C           -4.9556    -0.2906    -7.2196 C       5      r5    -0.0457
   3221 C           -3.8121    -0.1764    -9.0672 C       0      r0    -0.0385
   3222 C           -7.8939    -2.3243    -7.6983 C       0      r0     0.1622
   3223 H           -6.6600    -0.7662    -5.8703 H       0      r0     0.0366
   3224 H           -4.2786     0.2662    -6.6356 H       0      r0     0.0453
   3225 H           -3.0123     0.0972    -9.6845 H       0      r0     0.0621
   3226 H           -8.3825    -2.2930    -6.7479 H       0      r0     0.0924
   3227 C           -1.6873    -0.0715   -15.6559 C       0      r0     0.0874
   3228 O           -2.4402     0.8710   -16.8306 O       0      r0    -0.4681
   3229 C           -3.8425     0.2669   -16.1230 C       0      r0     0.0908
   3230 C           -3.8689    -0.6277   -15.0192 C       0      r0    -0.0414
   3231 C           -2.5353    -0.8072   -14.7321 C       0      r0    -0.0208
   3232 C           -0.4073    -0.2585   -15.6603 C       0      r0    -0.0303
   3233 C           -5.1083     0.4530   -16.4736 C       0      r0    -0.0370
   3234 H           -4.7632    -1.0667   -14.5882 H       0      r0     0.0349
   3235 H           -2.1335    -1.3845   -13.9047 H       0      r0     0.1240
   3236 H            0.5590    -0.6554   -15.4647 H       0      r0     0.0590
   3237 H           -6.0190     0.7097   -16.9490 H       0      r0     0.0554
   3238 C          -12.9506   -13.2222    -0.1267 C       5      r5     0.1001
   3239 O          -12.2152   -11.9379     0.4436 O       5      r5    -0.4534
   3240 C          -13.2042   -11.6732     1.4363 C       5      r5     0.1263
   3241 C          -14.3371   -12.5080     1.5916 C       5      r5    -0.0265
   3242 C          -14.1925   -13.4590     0.6311 C       5      r5    -0.0245
   3243 C          -12.5417   -13.9140    -1.1555 C       0      r0    -0.0218
   3244 C          -13.1075   -10.5963     2.3721 C       0      r0    -0.0226
   3245 H          -15.1605   -12.3544     2.3061 H       0      r0     0.0596
   3246 H          -14.9236   -14.2248     0.4225 H       0      r0     0.0524
   3247 H          -12.3861   -14.6675    -1.9300 H       0      r0     0.0617
   3248 H          -13.9262   -10.3809     3.0465 H       0      r0     0.0563
   3249 C           -4.1261    -5.8250     4.6949 C       5      r5     0.1448
   3250 O           -2.9040    -6.1026     3.9822 O       5      r5    -0.4680
   3251 C           -3.3081    -5.3550     2.7466 C       5      r5     0.1256
   3252 C           -4.6561    -4.8255     2.8956 C       5      r5    -0.0311
   3253 C           -5.2540    -5.1280     4.1075 C       5      r5    -0.0586
   3254 C           -4.5140    -6.1816     5.8860 C       0      r0     0.1402
   3255 C           -2.6039    -5.1118     1.6263 C       0      r0     0.0274
   3256 H           -5.2037    -4.2784     2.1934 H       0      r0     0.0471
   3257 H           -6.2477    -4.8263     4.5317 H       0      r0     0.0313
   3258 H           -5.4877    -5.9130     6.3133 H       0      r0     0.0635
   3259 H           -2.3990    -4.6787     0.6199 H       0      r0     0.1229
   3260 C           -9.9114    17.8127    -5.4676 C       5      r5     0.1662
   3261 O           -8.8734    17.8785    -6.3849 O       5      r5    -0.4627
   3262 C           -7.8895    17.0276    -5.3625 C       5      r5     0.0845
   3263 C           -8.4482    16.6126    -4.1041 C       5      r5    -0.0256
   3264 C           -9.7373    17.1644    -4.1430 C       5      r5    -0.0436
   3265 C          -11.1716    18.2228    -5.4696 C       0      r0     0.1456
   3266 C           -6.6459    16.5450    -5.4087 C       0      r0    -0.0381
   3267 H           -7.9721    15.9602    -3.3881 H       0      r0     0.1242
   3268 H          -10.4321    17.2142    -3.3069 H       0      r0     0.0412
   3269 H          -11.7965    18.0138    -4.6101 H       0      r0     0.0778
   3270 H           -5.6674    16.0900    -5.2085 H       0      r0     0.0584
   3271 C           11.0528    -4.7348    10.1130 C       5      r5     0.1214
   3272 C            9.6397    -5.0612    10.7181 C       5      r5    -0.0349
   3273 C            9.4761    -6.3499    10.8321 C       5      r5    -0.0189
   3274 C           10.6928    -6.8354    10.1643 C       5      r5     0.0952
   3275 C           11.8125    -7.0505     7.8389 C       5      r5     0.1621
   3276 O           12.7391    -5.9877     7.5671 O       5      r5    -0.4831
   3277 C           12.0371    -4.8245     7.7080 C       5      r5     0.1585
   3278 C           10.8381    -5.0480     8.6056 C       5      r5     0.0157
   3279 C           10.5944    -6.5786     8.6068 C       5      r5     0.0314
   3280 C           12.3509    -3.6407     7.1563 C       0      r0     0.0249
   3281 C           11.2973    -3.2205    10.4697 C       0      r0    -0.0288
   3282 C           11.0214    -8.3763    10.4993 C       0      r0    -0.0057
   3283 C           11.9400    -8.3345     7.4040 C       0      r0     0.0058
   3284 O           11.9717    -5.7592    10.4551 O       5      r5    -0.5168
   3285 C           11.2415    -0.1980     6.9903 C       5      r5     0.2174
   3286 C           10.0465    -0.9754     7.5998 C       5      r5    -0.0206
   3287 C           10.3516    -2.3176     7.6796 C       5      r5    -0.0458
   3288 C           11.6182    -2.4091     7.0778 C       5      r5     0.1246
   3289 O           12.2511    -1.3147     6.4623 O       5      r5    -0.4601
   3290 O            9.6696    -9.1874     8.1059 O       5      r5    -0.4554
   3291 C           11.0144    -9.4195     7.6201 C       5      r5     0.1112
   3292 C           11.5708   -10.6725     7.4732 C       5      r5    -0.0387
   3293 C           10.5777   -11.5187     7.9175 C       5      r5    -0.0240
   3294 C            9.4146   -10.6978     8.2660 C       5      r5     0.1160
   3295 O           12.6416    -1.8051    12.1636 O       5      r5    -0.4921
   3296 C           13.2432    -2.2810    13.5047 C       5      r5     0.0971
   3297 C           13.0637    -3.6872    13.6155 C       5      r5    -0.0215
   3298 C           12.2794    -4.1184    12.5397 C       5      r5     0.0175
   3299 C           12.0987    -3.0009    11.7901 C       5      r5     0.1492
   3300 C           10.8321    -8.5997    12.0209 C       5      r5     0.1430
   3301 C           11.8284    -8.0292    12.7832 C       5      r5    -0.0182
   3302 C           11.4528    -8.1800    14.0795 C       5      r5    -0.0234
   3303 C           10.1790    -8.9592    14.2119 C       5      r5     0.0715
   3304 O            9.7825    -9.1619    12.6012 O       5      r5    -0.4702
   3305 C           13.8540    -1.6009    14.4532 C       0      r0    -0.0532
   3306 C            8.3398   -11.0811     8.7122 C       0      r0    -0.0088
   3307 H            9.0362    -4.2869    11.1281 H       0      r0     0.0458
   3308 H            8.6833    -6.8776    11.3626 H       0      r0     0.0732
   3309 H            9.8611    -4.6543     8.1115 H       0      r0     0.0313
   3310 H            9.6878    -6.9741     8.1585 H       0      r0     0.1042
   3311 H           13.3088    -3.5132     6.5497 H       0      r0     0.1240
   3312 H           11.8325    -2.6526     9.7148 H       0      r0     0.0606
   3313 H           10.4269    -2.5539    10.3444 H       0      r0     0.0286
   3314 H           10.4469    -9.1643     9.9037 H       0      r0     0.1128
   3315 H           12.0244    -8.6896    10.1421 H       0      r0     0.0519
   3316 H           12.8551    -8.3437     6.8552 H       0      r0     0.0835
   3317 H            9.2053    -0.5755     8.0742 H       0      r0     0.0573
   3318 H            9.7242    -3.0993     8.0857 H       0      r0     0.0253
   3319 H           12.6163   -10.8937     7.1879 H       0      r0     0.0438
   3320 H           10.6853   -12.6402     8.1105 H       0      r0     0.0999
   3321 H           13.4141    -4.3192    14.3954 H       0      r0     0.0396
   3322 H           11.9259    -5.1084    12.2991 H       0      r0     0.1075
   3323 H           12.6908    -7.5712    12.3994 H       0      r0     0.0618
   3324 H           11.9735    -7.7050    14.8808 H       0      r0     0.1034
   3325 H           14.2526    -2.1034    15.2590 H       0      r0     0.0352
   3326 H           14.0017    -0.5385    14.5136 H       0      r0     0.0570
   3327 H            8.1867   -12.1131     8.8427 H       0      r0     0.0323
   3328 H            7.4729   -10.4834     8.9391 H       0      r0     0.1216
   3329 C            9.8781   -14.4663    12.6020 C       5      r5     0.0899
   3330 C           10.3710   -14.0028    11.2550 C       5      r5    -0.0422
   3331 C           11.0734   -15.0224    10.9336 C       5      r5    -0.0294
   3332 C           10.9667   -16.1671    11.9636 C       5      r5     0.1298
   3333 C           11.9136   -16.5450    14.3450 C       5      r5     0.1624
   3334 O           10.9434   -16.0871    15.2511 O       5      r5    -0.4553
   3335 C           10.7052   -14.7079    14.9819 C       5      r5     0.1400
   3336 C           11.1126   -14.3525    13.5620 C       5      r5    -0.0030
   3337 C           11.9355   -15.6403    13.1438 C       5      r5     0.0336
   3338 C           10.3086   -13.8437    15.9573 C       0      r0     0.0249
   3339 C            8.6223   -13.6794    13.0838 C       0      r0    -0.0209
   3340 C           11.3952   -17.5521    11.3984 C       0      r0     0.0132
   3341 C           12.8087   -17.5777    14.5416 C       0      r0     0.0029
   3342 O            9.7565   -16.1460    12.5810 O       5      r5    -0.4516
   3343 C            9.9673   -10.3163    16.4922 C       5      r5     0.1221
   3344 C           10.2280   -10.2237    15.1008 C       5      r5     0.0027
   3345 C           10.3552   -11.6040    14.7212 C       5      r5    -0.0254
   3346 C           10.1119   -12.4382    15.8428 C       5      r5     0.1268
   3347 O            9.7354   -11.7925    17.0048 O       5      r5    -0.4495
   3348 O           14.0416   -17.3916    12.4292 O       5      r5    -0.4886
   3349 C           13.8415   -17.9772    13.6690 C       5      r5     0.1228
   3350 C           14.6365    18.9630    14.0584 C       5      r5    -0.0142
   3351 C           15.5286    18.5685    13.0225 C       5      r5    -0.0352
   3352 C           15.1749   -18.4931    12.0437 C       5      r5     0.0922
   3353 O            6.7899   -14.8179    11.6915 O       5      r5    -0.4592
   3354 C            5.8102   -14.0796    10.7255 C       5      r5     0.0856
   3355 C            6.1072   -12.6619    10.7078 C       5      r5    -0.0408
   3356 C            7.1277   -12.4146    11.6456 C       5      r5    -0.0450
   3357 C            7.4364   -13.6958    12.0992 C       5      r5     0.1370
   3358 C           10.6671   -18.0212    10.1314 C       0      r0     0.1867
   3359 C            9.2253   -17.5649    10.1207 C       0      r0     0.0012
   3360 C            8.3038   -17.8602     9.1810 C       0      r0    -0.0151
   3361 C            8.7686   -18.9358     8.4038 C       0      r0     0.0363
   3362 O           11.2509   -18.7391     9.4179 O       0      r0    -0.4508
   3363 C            4.9778   -14.6282    10.0138 C       0      r0    -0.0285
   3364 C           15.8790   -18.7105    10.9752 C       0      r0    -0.0255
   3365 H           10.2733   -13.0805    10.7950 H       0      r0     0.0363
   3366 H           11.7063   -15.1190    10.0776 H       0      r0     0.0429
   3367 H           11.5569   -13.3273    13.6617 H       0      r0     0.0278
   3368 H           12.9520   -15.4724    12.8211 H       0      r0     0.0803
   3369 H           10.1432   -14.3219    16.9388 H       0      r0     0.1085
   3370 H            8.3821   -13.8956    14.1213 H       0      r0     0.0645
   3371 H            8.9038   -12.6714    13.4328 H       0      r0     0.0229
   3372 H           12.4294   -17.6434    11.2651 H       0      r0     0.1250
   3373 H           11.2686   -18.2994    12.1984 H       0      r0     0.0687
   3374 H           12.6851   -18.0559    15.5350 H       0      r0     0.0702
   3375 H            9.3634    -8.4909    14.6670 H       0      r0     0.1225
   3376 H           10.4760   -11.9210    13.7020 H       0      r0     0.0406
   3377 H           14.7415    18.5258    15.0736 H       0      r0     0.0843
   3378 H           16.2334    17.7265    13.0023 H       0      r0     0.0522
   3379 H            5.5758   -11.9013    10.1744 H       0      r0     0.0471
   3380 H            7.6113   -11.4799    11.8240 H       0      r0     0.0468
   3381 H            8.9118   -16.8703    10.8950 H       0      r0     0.1180
   3382 H            7.2927   -17.4517     9.1804 H       0      r0     0.0973
   3383 H            4.2476   -14.1151     9.3613 H       0      r0     0.0405
   3384 H            4.9142   -15.7105    10.0267 H       0      r0     0.0861
   3385 H           16.5902    18.5033    10.9225 H       0      r0     0.1052
   3386 H           15.6513   -18.1840    10.0586 H       0      r0     0.1201
   3387 C           16.2395    -0.4739    10.9434 C       6      r6     0.1259
   3388 C           17.6192    -1.0795    10.7791 C       6      r6    -0.0102
   3389 C           17.8377    -2.4027    10.9775 C       6      r6    -0.0306
   3390 C           16.7069    -3.2677    11.1767 C       6      r6    -0.0287
   3391 C           15.3151    -3.3676     9.0136 C       5      r5     0.1396
   3392 O           15.2448    -2.2510     8.1146 O       5      r5    -0.4803
   3393 C           14.8400    -1.1712     8.8879 C       5      r5     0.1627
   3394 C           15.0839    -1.3521    10.3745 C       5      r5     0.0197
   3395 C           15.3908    -3.0489    10.4996 C       5      r5    -0.0122
   3396 C           14.2356    -0.1065     8.2916 C       0      r0     0.0294
   3397 C           15.7954    -0.5402    12.5048 C       0      r0    -0.0151
   3398 C           16.8316    -4.3794    12.0853 C       0      r0    -0.0183
   3399 C           15.1543    -4.6618     8.5701 C       0      r0     0.0238
   3400 O           16.1088     0.9011    10.4421 O       0      r0    -0.6095
   3401 C           12.9097     2.5235    10.4717 C       5      r5     0.0909
   3402 C           12.7741     2.9866     9.0809 C       5      r5    -0.0065
   3403 C           13.2712     2.0912     8.1876 C       5      r5     0.0067
   3404 C           13.6909     1.0083     8.9634 C       5      r5     0.1158
   3405 O           13.5767     1.1264    10.4368 O       5      r5    -0.5122
   3406 O           14.6324    -5.8232    10.7919 O       0      r0    -0.5820
   3407 C           14.9958    -5.7993     9.4984 C       0      r0     0.1611
   3408 C           15.2916    -6.8444     8.7083 C       0      r0    -0.0110
   3409 C           15.1346    -8.2846     9.0546 C       0      r0    -0.0279
   3410 C           15.0102    -8.8611    10.3450 C       0      r0     0.0041
   3411 O           17.5784     0.7871    13.6585 O       5      r5    -0.4782
   3412 C           17.4508     2.3172    14.2249 C       5      r5     0.0835
   3413 C           16.1405     2.7910    13.9151 C       5      r5    -0.0291
   3414 C           15.4089     1.7725    13.3114 C       5      r5    -0.0165
   3415 C           16.3010     0.7365    13.1688 C       5      r5     0.1561
   3416 C           17.9109    -4.7152    12.8904 C       6      r6     0.1253
   3417 C           17.5470    -5.9780    13.3960 C       6      r6    -0.0353
   3418 C          -17.6378    -5.7543    14.9365 C       6      r6     0.0034
   3419 C          -17.2973    -4.3918    14.3135 C       6      r6     0.1094
   3420 O          -18.1273    -3.9766    13.1497 O       6      r6    -0.4890
   3421 C          -16.4075    -3.6494    14.9784 C       0      r0    -0.0245
   3422 C           12.5393     3.0611    11.4942 C       0      r0    -0.0382
   3423 H           18.4575    -0.4244    10.7744 H       0      r0     0.0655
   3424 H          -18.4059    -2.8389    11.1265 H       0      r0     0.0813
   3425 H           14.1336    -0.9685    10.7218 H       0      r0     0.1308
   3426 H           14.5964    -3.6789    10.9275 H       0      r0     0.0979
   3427 H           14.2110    -0.1656     7.2090 H       0      r0     0.1041
   3428 H           14.7058    -0.7830    12.5738 H       0      r0     0.0710
   3429 H           16.2912    -1.4250    12.8992 H       0      r0     0.0651
   3430 H           13.5216    -5.9244    10.7328 H       0      r0     0.3459
   3431 H           15.9404    -5.0324    12.0702 H       0      r0     0.1016
   3432 H           15.1020    -4.7836     7.5256 H       0      r0     0.1277
   3433 H           12.3185     3.9300     8.7194 H       0      r0     0.0793
   3434 H           13.3974     2.1325     7.1185 H       0      r0     0.1207
   3435 H           15.5161    -6.6174     7.7063 H       0      r0     0.0565
   3436 H           15.3815    -8.9566     8.2523 H       0      r0     0.0758
   3437 H           15.7233     3.7693    14.2319 H       0      r0     0.0565
   3438 H           14.3681     1.8252    13.0825 H       0      r0     0.0552
   3439 H           16.7027    -6.6112    13.2022 H       0      r0     0.0471
   3440 H           16.4939   -10.0486   -17.5708 H       0      r0     0.3444
   3441 H          -16.0749    -3.9267    15.9521 H       0      r0     0.0412
   3442 H          -16.0474    -2.7135    14.4638 H       0      r0     0.0914
   3443 H           12.0851     4.0396    11.4032 H       0      r0     0.0749
   3444 H           12.5324     2.7156    12.5232 H       0      r0     0.0528
   3445 C           16.6816    -9.3242    18.4588 C       6      r6     0.1449
   3446 C           15.1818    -9.5710    18.2246 C       6      r6     0.0121
   3447 C           14.5887   -10.7416    18.3019 C       6      r6    -0.0152
   3448 C           15.6127   -11.6991    18.5232 C       6      r6     0.0001
   3449 C           17.8217   -12.6671    18.0306 C       5      r5     0.1562
   3450 O          -18.3109   -11.9464    18.3447 O       5      r5    -0.4675
   3451 C          -18.4654   -10.6762    17.7503 C       5      r5     0.1665
   3452 C           17.3625   -10.2831    17.3822 C       5      r5     0.0060
   3453 C           16.7418   -11.7621    17.5462 C       5      r5     0.0044
   3454 C          -17.3931    -9.8365    17.7405 C       0      r0     0.0175
   3455 C           17.0726    -7.8548    18.0925 C       0      r0     0.0134
   3456 C           15.3718   -12.7815   -18.3913 C       0      r0    -0.0016
   3457 C           17.7983   -14.0599    18.0050 C       0      r0     0.0180
   3458 O           17.1620    -9.5677   -18.1726 O       0      r0    -0.5605
   3459 C          -17.2745    -6.7779    15.8645 C       5      r5     0.0916
   3460 C          -16.0157    -6.7076    16.4639 C       5      r5    -0.0336
   3461 C          -15.9831    -7.8593    17.2384 C       5      r5    -0.0175
   3462 C          -17.2358    -8.6019    17.0586 C       5      r5     0.1188
   3463 O          -18.1546    -8.0778    16.2059 O       5      r5    -0.4825
   3464 O           15.6833   -14.3708    16.7290 O       5      r5    -0.4659
   3465 C           16.7532   -14.8657    17.4506 C       5      r5     0.1294
   3466 C           16.7030   -16.2232    17.7832 C       5      r5    -0.0115
   3467 C           15.5164   -16.8061    17.3313 C       5      r5    -0.0201
   3468 C           14.8790   -15.8341    16.5525 C       5      r5     0.0973
   3469 O           15.2217    -6.7568   -18.6294 O       5      r5    -0.4500
   3470 C           15.4579    -5.7559   -17.1804 C       5      r5     0.1960
   3471 C           16.9442    -5.5345   -17.1086 C       5      r5    -0.0126
   3472 C           17.5279    -6.1008   -18.1549 C       5      r5    -0.0244
   3473 C           16.5164    -6.8169   -18.8469 C       5      r5     0.1640
   3474 C           14.6446   -12.1948   -17.2062 C       5      r5     0.1312
   3475 C           13.7548   -12.9868   -16.6068 C       5      r5     0.0015
   3476 C           13.1267   -12.1061   -15.6444 C       5      r5    -0.0115
   3477 C           13.8430   -10.8573   -15.7219 C       5      r5     0.1275
   3478 O           14.9341   -10.8336   -16.7206 O       5      r5    -0.4723
   3479 C           13.3770   -10.0873   -14.8359 C       0      r0    -0.0358
   3480 C           18.4636    -6.1854    14.4138 C       6      r6     0.0155
   3481 H           14.6079    -8.6751    18.1099 H       0      r0     0.1273
   3482 H           13.5542   -10.9008    18.3101 H       0      r0     0.0736
   3483 H           17.1785    -9.7256    16.4734 H       0      r0     0.0595
   3484 H           16.4080   -12.0624    16.6137 H       0      r0     0.0759
   3485 H          -16.4730   -10.2495    18.1749 H       0      r0     0.0776
   3486 H           18.1872    -7.8486    18.1422 H       0      r0     0.0938
   3487 H           16.5524    -7.5753    17.1957 H       0      r0     0.0672
   3488 H           14.9807   -13.7640   -18.7574 H       0      r0     0.1028
   3489 H           16.4038   -13.1648   -18.0766 H       0      r0     0.1002
   3490 H           18.6015   -14.5557    18.4924 H       0      r0     0.0883
   3491 H          -15.2823    -5.9763    16.2229 H       0      r0     0.0449
   3492 H          -15.1980    -8.0949    17.8796 H       0      r0     0.0975
   3493 H           17.4637   -16.7265    18.3799 H       0      r0     0.0530
   3494 H           15.1385   -17.7714    17.4396 H       0      r0     0.0699
   3495 H           17.4430    -4.9382   -16.3474 H       0      r0     0.0891
   3496 H           18.5868    -6.1200   -18.3620 H       0      r0     0.0452
   3497 H           13.4672   -14.0318   -16.7989 H       0      r0     0.0930
   3498 H           12.4235   -12.3983   -14.8510 H       0      r0     0.0783
   3499 H           12.5349   -10.4010   -14.2240 H       0      r0     0.0417
   3500 H           13.7165    -9.1169   -14.6884 H       0      r0     0.0682
   3501 H           15.1929     1.2201    10.6501 H       0      r0     0.3407
   3502 H          -16.7665    -0.8527    18.2044 H       0      r0     0.2719
   3503 C            9.0441     1.9758     9.8766 C       0      r0     0.2072
   3504 C           10.0591     0.9265    10.1600 C       0      r0    -0.0025
   3505 C           10.0511     0.0800    11.1567 C       0      r0    -0.0260
   3506 C            9.0146    -0.2261    12.1364 C       0      r0     0.1629
   3507 C            9.5994    -1.1968    13.2626 C       0      r0    -0.0078
   3508 O            7.8965     0.0927    12.2310 O       0      r0    -0.4774
   3509 O            8.8424     2.3337     8.7824 O       0      r0    -0.4769
   3510 C            9.0240    -2.6318    13.2339 C       5      r5     0.1333
   3511 C            7.7936    -2.8458    12.5857 C       5      r5    -0.0286
   3512 C            7.5272    -4.1690    12.7836 C       5      r5    -0.0366
   3513 C            8.6852    -4.7287    13.5084 C       5      r5     0.0869
   3514 O            9.7579    -3.5809    13.8797 O       5      r5    -0.4777
   3515 C            8.8766    -5.8814    13.8359 C       0      r0    -0.0224
   3516 C            8.3783     2.6676    11.1078 C       0      r0     0.0123
   3517 C           10.2401     5.7917    12.2760 C       5      r5     0.0861
   3518 C            9.6097     5.3810    13.4593 C       5      r5    -0.0176
   3519 C            8.9421     4.2146    13.0277 C       5      r5    -0.0075
   3520 C            9.1667     3.9120    11.7017 C       5      r5     0.1499
   3521 O            9.9331     4.6563    11.0078 O       5      r5    -0.4632
   3522 H           10.9404     1.0507     9.5373 H       0      r0     0.0891
   3523 H           10.9902    -0.4577    11.1337 H       0      r0     0.0861
   3524 H           10.7115    -1.3343    13.1463 H       0      r0     0.0975
   3525 H            9.2674    -0.7337    14.1889 H       0      r0     0.0600
   3526 H            7.1642    -2.0804    12.1593 H       0      r0     0.0820
   3527 H            6.5890    -4.7099    12.4556 H       0      r0     0.1068
   3528 H            8.1974    -6.6938    13.5645 H       0      r0     0.0728
   3529 H            9.7673    -6.0951    14.3818 H       0      r0     0.0668
   3530 H            7.2689     2.8455    10.8754 H       0      r0     0.0678
   3531 H            8.3756     1.9483    11.9617 H       0      r0     0.1014
   3532 H            9.6349     5.8242    14.4451 H       0      r0     0.0797
   3533 H            8.3590     3.6755    13.7024 H       0      r0     0.0874
   3534 C           11.8999     3.8928   -15.5605 C       0      r0     0.1583
   3535 C           10.9475     3.1110   -14.8536 C       0      r0    -0.0384
   3536 C           11.0746     2.5571   -13.5666 C       0      r0    -0.0176
   3537 C           12.0640     2.4749   -12.6147 C       0      r0     0.1533
   3538 C           13.4488     2.8382   -13.0403 C       0      r0     0.0123
   3539 O           11.9074     2.0479   -11.3762 O       0      r0    -0.4831
   3540 O           12.8636     4.4981   -15.2501 O       0      r0    -0.4910
   3541 C           14.4617     1.6730   -12.8110 C       5      r5     0.1448
   3542 C           14.8273     1.3736   -11.5175 C       5      r5    -0.0208
   3543 C           15.7391     0.3436   -11.6238 C       5      r5    -0.0284
   3544 C           15.8456    -0.0292   -13.0371 C       5      r5     0.0830
   3545 O           14.9005     1.0004   -13.8939 O       5      r5    -0.4694
   3546 C           16.5588    -0.9880   -13.4828 C       0      r0    -0.0415
   3547 C           11.5184     4.0302   -17.0900 C       0      r0    -0.0040
   3548 C           12.1744    -0.0856   -18.8462 C       0      r0     0.0161
   3549 C           12.8520     0.5727   -17.8130 C       0      r0    -0.0046
   3550 C           12.5277     1.8874   -17.3313 C       0      r0    -0.0112
   3551 C           11.4920     2.6961   -17.6562 C       0      r0     0.1379
   3552 O           10.4134     2.5249   -18.3621 O       0      r0    -0.5041
   3553 H           10.0649     2.9369   -15.3823 H       0      r0     0.0355
   3554 H           10.0655     2.1842   -13.3705 H       0      r0     0.0520
   3555 H           13.4728     3.1368   -14.1215 H       0      r0     0.1341
   3556 H           13.6784     3.6544   -12.3783 H       0      r0     0.0631
   3557 H           14.5082     1.9048   -10.6603 H       0      r0     0.0562
   3558 H           16.2361    -0.1752   -10.8635 H       0      r0     0.1067
   3559 H           17.0638    -1.6596   -12.8690 H       0      r0     0.0535
   3560 H           16.6157    -1.2539   -14.5012 H       0      r0     0.0653
   3561 H           10.6923     4.7120   -17.2978 H       0      r0     0.0496
   3562 H           12.2865     4.6231   -17.6338 H       0      r0     0.0649
   3563 H           13.6601    -0.0506   -17.4226 H       0      r0     0.0982
   3564 H           13.2553     2.2272   -16.6246 H       0      r0     0.0737
   3565 C            6.4651    -5.4011    15.8404 C       5      r5     0.1542
   3566 O            5.9718    -4.1565    16.3323 O       5      r5    -0.4833
   3567 C            7.2959    -3.7426    17.0317 C       5      r5     0.0934
   3568 C            8.2414    -4.7550    17.1851 C       5      r5    -0.0256
   3569 C            7.6982    -5.8173    16.4603 C       5      r5     0.0082
   3570 C            5.8859    -6.2326    14.8749 C       0      r0     0.0151
   3571 C            8.7625    -1.8395    17.7055 C       0      r0     0.1251
   3572 O            8.9418    -0.6917    18.6523 O       0      r0    -0.4841
   3573 C           11.6278    -0.8718    18.1102 C       0      r0     0.0101
   3574 C           11.1375    -1.6802    17.1022 C       0      r0    -0.0275
   3575 C            9.8322    -2.3071    16.9968 C       0      r0    -0.0083
   3576 C            7.5097    -2.4263    17.4715 C       0      r0     0.0076
   3577 C            6.2862    -7.5751    14.6796 C       5      r5     0.1409
   3578 C            5.5408    -8.2626    13.6952 C       5      r5    -0.0159
   3579 C            5.8513    -9.6471    13.6346 C       5      r5    -0.0368
   3580 C            6.8795    -9.6541    14.6357 C       5      r5     0.1190
   3581 O            7.2970    -8.2761    15.2920 O       5      r5    -0.4745
   3582 C            7.2324   -10.8716    14.8298 C       0      r0    -0.0294
   3583 H            9.2348    -4.7662    17.6426 H       0      r0     0.1105
   3584 H            8.1900    -6.7761    16.4863 H       0      r0     0.1043
   3585 H            5.0057    -5.8194    14.3244 H       0      r0     0.0960
   3586 H           11.9159    -1.9338    16.4695 H       0      r0     0.0467
   3587 H            9.7429    -3.1036    16.2479 H       0      r0     0.0802
   3588 H            6.6106    -1.9173    17.7470 H       0      r0     0.1063
   3589 H            4.7342    -7.8907    13.1842 H       0      r0     0.0611
   3590 H            5.3441   -10.4131    13.1094 H       0      r0     0.0368
   3591 H            6.8925   -11.6469    14.2126 H       0      r0     0.0320
   3592 H            7.9461   -11.1229    15.5921 H       0      r0     0.1016
   3593 C           -6.4385   -10.6708    16.0506 C       5      r5     0.1552
   3594 O           -5.9456    -9.4304    15.6860 O       5      r5    -0.4573
   3595 C           -5.4124    -9.8636    14.3006 C       5      r5     0.0983
   3596 C           -5.4539   -11.2450    14.0398 C       5      r5    -0.0211
   3597 C           -6.1788   -11.7299    15.1380 C       5      r5     0.0042
   3598 C           -7.0455   -10.8527    17.3012 C       0      r0     0.0122
   3599 C           -4.7695    -9.0912    12.0189 C       5      r5     0.1151
   3600 O           -4.1659    -8.2071    11.1199 O       5      r5    -0.4759
   3601 C           -4.7353    -8.9109     9.8032 C       5      r5     0.1038
   3602 C           -5.5246   -10.0629    10.0450 C       5      r5    -0.0377
   3603 C           -5.4690   -10.2031    11.4488 C       5      r5    -0.0308
   3604 C           -4.9705    -8.8802    13.3967 C       0      r0    -0.0068
   3605 C           -7.5883   -12.0709    17.7557 C       5      r5     0.1129
   3606 C           -8.1506   -12.1723   -18.8929 C       5      r5    -0.0218
   3607 C           -8.5979   -13.4711   -18.5836 C       5      r5    -0.0189
   3608 C           -8.2340   -14.1032    18.1142 C       5      r5     0.0973
   3609 O           -7.5838   -13.2897    16.9604 O       5      r5    -0.5004
   3610 C           -8.5590   -15.3414    18.2050 C       0      r0    -0.0388
   3611 H           -5.0908   -11.8249    13.2425 H       0      r0     0.1053
   3612 H           -6.5492   -12.7326    15.2797 H       0      r0     0.1032
   3613 H           -7.2508   -10.0057    17.9842 H       0      r0     0.0694
   3614 H           -6.0520   -10.7477     9.3656 H       0      r0     0.0439
   3615 H           -6.0740   -10.9183    11.9222 H       0      r0     0.0504
   3616 H           -4.6894    -7.9009    13.7025 H       0      r0     0.0779
   3617 H           -8.2340   -11.2956   -18.2884 H       0      r0     0.0851
   3618 H           -9.0952   -13.8891   -17.7358 H       0      r0     0.1119
   3619 H           -9.0674   -15.7353   -18.8743 H       0      r0     0.0595
   3620 H           -8.3337   -16.0099    17.4070 H       0      r0     0.0621
   3621 C            1.4276   -15.3456     9.3540 C       5      r5     0.1142
   3622 O            1.7770   -16.9024     9.5315 O       5      r5    -0.4979
   3623 C            2.4212   -16.6233    10.8050 C       5      r5     0.1088
   3624 C            2.5267   -15.2342    11.2120 C       5      r5    -0.0263
   3625 C            1.8982   -14.3879    10.3136 C       5      r5    -0.0219
   3626 C            0.8322   -14.6739     8.4027 C       0      r0     0.1387
   3627 C            2.9709   -17.6067    11.6155 C       0      r0    -0.0523
   3628 H            3.0051   -14.9327    12.0839 H       0      r0     0.0574
   3629 H            1.8665   -13.3106    10.4066 H       0      r0     0.0841
   3630 H            0.7274   -13.5971     8.4184 H       0      r0     0.0994
   3631 H            3.4629   -17.7769    12.5133 H       0      r0     0.0245
   3632 C           17.3948     5.0296   -11.9035 C       5      r5     0.1267
   3633 O          -18.5647     5.4894   -12.4458 O       5      r5    -0.4597
   3634 C           18.1475     6.7678   -13.0415 C       5      r5     0.1231
   3635 C           16.7697     7.0027   -12.6198 C       5      r5    -0.0293
   3636 C           16.2829     5.8613   -12.0248 C       5      r5    -0.0192
   3637 C           17.1965     3.8157   -11.1657 C       0      r0    -0.0241
   3638 C          -18.4033     7.6432   -13.7949 C       0      r0    -0.0031
   3639 H           16.1845     7.8484   -12.8262 H       0      r0     0.0433
   3640 H           15.2677     5.6389   -11.6787 H       0      r0     0.0732
   3641 H           16.2375     3.5978   -10.7787 H       0      r0     0.0391
   3642 H          -18.2533     8.5921   -14.3166 H       0      r0     0.0587
   3643 C            2.5802   -11.7668    -7.7924 C       5      r5     0.1120
   3644 O            3.3039   -10.4840    -8.3916 O       5      r5    -0.4650
   3645 C            3.9973   -10.1708    -7.2146 C       5      r5     0.1279
   3646 C            4.0187   -11.0466    -6.1037 C       5      r5    -0.0311
   3647 C            3.1317   -12.0227    -6.4482 C       5      r5    -0.0283
   3648 C            1.7274   -12.5148    -8.3998 C       0      r0    -0.0144
   3649 C            4.7099    -8.9130    -7.0451 C       0      r0    -0.0102
   3650 H            4.6440   -10.8407    -5.1664 H       0      r0     0.1053
   3651 H            2.9537   -12.8719    -5.7722 H       0      r0     0.0481
   3652 H            1.0898   -13.2195    -8.7816 H       0      r0     0.0562
   3653 H            5.1592    -8.6101    -6.0521 H       0      r0     0.0636
   3654 C          -17.2014   -14.7060    -9.9338 C       5      r5     0.1245
   3655 O          -17.2447   -16.1498   -10.0220 O       5      r5    -0.4585
   3656 C           18.5568   -16.2239   -10.2637 C       5      r5     0.1619
   3657 C           17.7596   -15.0452   -10.4597 C       5      r5    -0.0322
   3658 C          -18.5123   -14.0939   -10.1825 C       5      r5    -0.0195
   3659 C          -16.1620   -13.9011    -9.6085 C       0      r0    -0.0305
   3660 C           17.7155   -17.2345   -10.4477 C       0      r0     0.1819
   3661 H           16.6944   -14.9096   -10.5584 H       0      r0     0.0710
   3662 H           18.5267   -13.0708   -10.1906 H       0      r0     0.1047
   3663 H          -15.2268   -13.5874    -9.3296 H       0      r0     0.0423
   3664 H           16.6247   -17.0421   -10.6175 H       0      r0     0.1429
   3665 C           -1.5189    18.8586    10.4918 C       5      r5     0.1748
   3666 O           -1.8613    17.6526    11.0328 O       5      r5    -0.4600
   3667 C           -0.7530    17.7253    12.1495 C       5      r5     0.1098
   3668 C            0.2113    18.7647    11.9977 C       5      r5    -0.0459
   3669 C           -0.2358   -18.5624    10.9168 C       5      r5    -0.0336
   3670 C           -2.2247   -18.5034     9.5857 C       0      r0     0.1763
   3671 C           -0.5869    16.8662    13.1943 C       0      r0     0.0110
   3672 H            1.0639    18.9605    12.5704 H       0      r0     0.0316
   3673 H            0.3607   -17.7244    10.4196 H       0      r0     0.1093
   3674 H           -1.7899   -17.5972     9.1432 H       0      r0     0.0763
   3675 H           -0.0169    16.4689    13.9978 H       0      r0     0.1336
   3676 C           -8.0445     0.3466    10.2623 C       5      r5     0.1234
   3677 C           -8.9894    -0.6013     9.4859 C       5      r5    -0.0231
   3678 C           -8.3790    -1.3141     8.6128 C       5      r5    -0.0361
   3679 C           -6.9945    -0.8156     8.8472 C       5      r5     0.0834
   3680 C           -5.5561     1.0904     8.1493 C       5      r5     0.1495
   3681 O           -5.5394     2.2531     8.9747 O       5      r5    -0.4931
   3682 C           -6.8654     2.5978     9.2715 C       5      r5     0.1506
   3683 C           -7.8110     1.4703     9.1142 C       5      r5     0.0190
   3684 C           -6.9246     0.4995     8.0814 C       5      r5     0.0193
   3685 C           -7.2078     3.9046     9.4237 C       0      r0    -0.0049
   3686 C           -8.6794     0.9756    11.5525 C       0      r0    -0.0127
   3687 C           -5.8533    -1.8063     8.4286 C       0      r0    -0.0128
   3688 C           -4.4907     0.6913     7.3921 C       0      r0    -0.0015
   3689 O           -6.8237    -0.2560    10.4488 O       5      r5    -0.4584
   3690 C           -9.9832     6.6341    11.5375 C       0      r0     0.1916
   3691 C           -9.5110     6.6050    10.2120 C       0      r0    -0.0052
   3692 C           -8.3697     5.7005     9.7644 C       0      r0    -0.0226
   3693 C           -8.5156     4.3856     9.7279 C       0      r0     0.1267
   3694 O           -9.6723     3.6743    10.0363 O       0      r0    -0.4772
   3695 O           -5.6076    -0.7638     5.7972 O       5      r5    -0.4818
   3696 C           -4.5223    -0.1818     6.3248 C       5      r5     0.1269
   3697 C           -3.2673    -0.3309     5.7060 C       5      r5    -0.0312
   3698 C           -3.3319    -1.1194     4.5457 C       5      r5    -0.0446
   3699 C           -4.7345    -1.4194     4.5966 C       5      r5     0.0836
   3700 O           -9.6607     0.1548    13.7557 O       5      r5    -0.4712
   3701 C           -9.3092    -1.2389    14.5274 C       5      r5     0.0935
   3702 C           -8.5029    -2.0132    13.6521 C       5      r5    -0.0133
   3703 C           -8.3116    -1.3108    12.4491 C       5      r5    -0.0015
   3704 C           -8.9856    -0.1352    12.6323 C       5      r5     0.1434
   3705 C           -5.6279    -2.9809     9.4282 C       5      r5     0.1450
   3706 C           -6.1991    -4.2008     9.0336 C       5      r5    -0.0381
   3707 C           -5.9373    -5.0902     9.9840 C       5      r5    -0.0415
   3708 C           -5.1866    -4.4881    11.1447 C       5      r5     0.0653
   3709 O           -4.9939    -2.8357    10.5676 O       5      r5    -0.4536
   3710 C           -9.6341    -1.5465    15.7808 C       0      r0    -0.0365
   3711 C           -5.0407    -2.1888     3.6419 C       0      r0    -0.0463
   3712 H          -10.0888    -0.6257     9.5958 H       0      r0     0.0898
   3713 H           -8.7051    -2.1633     7.9752 H       0      r0     0.0620
   3714 H           -8.8163     1.7515     8.8416 H       0      r0     0.0756
   3715 H           -7.2308     0.4375     7.0470 H       0      r0     0.0790
   3716 H           -6.4585     4.6068     9.2637 H       0      r0     0.0497
   3717 H           -8.0556     1.8333    11.8613 H       0      r0     0.0615
   3718 H           -9.6092     1.4124    11.3422 H       0      r0     0.0785
   3719 H           -6.0179    -2.2608     7.4787 H       0      r0     0.0608
   3720 H           -4.9605    -1.2231     8.1691 H       0      r0     0.0655
   3721 H           -3.5615     1.1524     7.6345 H       0      r0     0.0699
   3722 H          -10.0085     7.2891     9.5184 H       0      r0     0.0650
   3723 H           -7.4090     6.1568     9.6171 H       0      r0     0.0511
   3724 H           -2.3256     0.1717     6.0338 H       0      r0     0.0853
   3725 H           -2.5776    -1.4355     3.9031 H       0      r0     0.0708
   3726 H           -8.0438    -3.0248    13.8466 H       0      r0     0.1058
   3727 H           -7.7052    -1.6159    11.6334 H       0      r0     0.1187
   3728 H           -6.8158    -4.3631     8.1575 H       0      r0     0.0330
   3729 H           -6.1834    -6.1415     9.9141 H       0      r0     0.0450
   3730 H           -9.2944    -2.5202    16.0807 H       0      r0     0.0819
   3731 H          -10.1869    -0.9263    16.5060 H       0      r0     0.0517
   3732 H           -4.3304    -2.4870     2.8820 H       0      r0     0.0996
   3733 H           -6.0296    -2.4886     3.6095 H       0      r0     0.0468
   3734 C           -9.4659    -7.0597    11.6095 C       5      r5     0.0771
   3735 C           -9.1751    -7.7018    10.2999 C       5      r5    -0.0302
   3736 C           -9.9618    -8.7405    10.4200 C       5      r5    -0.0153
   3737 C          -10.6404    -8.8126    11.8148 C       5      r5     0.1474
   3738 C           -9.5719    -9.5647    14.0912 C       5      r5     0.1643
   3739 O           -9.4806    -8.5239    14.9234 O       5      r5    -0.4749
   3740 C           -8.7202    -7.5227    14.1934 C       5      r5     0.1482
   3741 C           -8.6275    -7.7998    12.7188 C       5      r5    -0.0009
   3742 C           -9.3170    -9.1815    12.6766 C       5      r5     0.0251
   3743 C           -8.1496    -6.3911    14.6626 C       0      r0     0.0239
   3744 C           -9.1499    -5.5297    11.5664 C       0      r0    -0.0284
   3745 C          -11.7374    -9.9600    11.8179 C       0      r0     0.0016
   3746 C           -9.4883   -10.9173    14.5123 C       0      r0     0.0018
   3747 O          -10.9315    -7.5875    12.2767 O       5      r5    -0.4653
   3748 C           -5.9269    -3.7328    13.6611 C       5      r5     0.2073
   3749 C           -5.9173    -4.6718    12.4733 C       5      r5     0.0120
   3750 C           -6.6462    -5.8119    12.7917 C       5      r5    -0.0379
   3751 C           -7.2123    -5.4907    14.0351 C       5      r5     0.1257
   3752 O           -6.9113    -4.3480    14.7851 O       5      r5    -0.4666
   3753 O           -9.8406   -12.0920    12.3992 O       5      r5    -0.4898
   3754 C           -9.5455   -12.0920    13.7648 C       5      r5     0.1165
   3755 C           -9.2098   -13.3451    14.3582 C       5      r5    -0.0213
   3756 C           -9.2736   -14.3981    13.4238 C       5      r5    -0.0348
   3757 C           -9.6899   -13.6547    12.2833 C       5      r5     0.1007
   3758 O          -10.4303    -5.0004     9.3715 O       5      r5    -0.4833
   3759 C          -11.5561    -3.8509     9.1938 C       5      r5     0.0914
   3760 C          -11.7026    -3.1986    10.4949 C       5      r5    -0.0146
   3761 C          -10.8596    -3.8168    11.3923 C       5      r5    -0.0186
   3762 C          -10.2012    -4.7866    10.6668 C       5      r5     0.1532
   3763 C          -12.9414    -9.5411    12.6527 C       0      r0     0.1588
   3764 C          -12.9144    -9.8637    13.9795 C       0      r0    -0.0121
   3765 C          -14.1114    -9.8135    14.8925 C       0      r0    -0.0259
   3766 C          -14.0761   -10.0776    16.2004 C       0      r0     0.1106
   3767 O          -14.0237    -9.0472    11.9067 O       0      r0    -0.4648
   3768 C          -12.1853    -3.5869     8.0975 C       0      r0    -0.0219
   3769 C           -9.9158   -14.4931    11.3294 C       0      r0    -0.0399
   3770 H           -8.4713    -7.4147     9.5727 H       0      r0     0.0453
   3771 H          -10.0526    -9.5493     9.7368 H       0      r0     0.0521
   3772 H           -7.5524    -7.8106    12.5423 H       0      r0     0.0313
   3773 H           -8.6904    -9.9738    12.2942 H       0      r0     0.0669
   3774 H           -8.4506    -6.2813    15.7150 H       0      r0     0.1059
   3775 H           -9.1268    -5.0810    12.5547 H       0      r0     0.0447
   3776 H           -8.1551    -5.4498    11.1595 H       0      r0     0.0412
   3777 H          -12.0991   -10.1578    10.7839 H       0      r0     0.0788
   3778 H          -11.2292   -10.8786    12.1080 H       0      r0     0.0966
   3779 H           -9.3506   -11.0325    15.5868 H       0      r0     0.0661
   3780 H           -4.2403    -4.9437    11.2445 H       0      r0     0.0831
   3781 H           -6.6843    -6.7286    12.1539 H       0      r0     0.0363
   3782 H           -8.8822   -13.3511    15.4039 H       0      r0     0.1013
   3783 H           -9.1842   -15.4762    13.6145 H       0      r0     0.0533
   3784 H          -12.3922    -2.4550    10.7625 H       0      r0     0.1006
   3785 H          -10.6954    -3.5152    12.4264 H       0      r0     0.0519
   3786 H          -11.8778   -10.1738    14.2168 H       0      r0     0.0593
   3787 H          -15.1654    -9.5696    14.6329 H       0      r0     0.0625
   3788 H          -12.8404    -2.7375     8.0530 H       0      r0     0.0555
   3789 H          -11.9351    -4.2201     7.2806 H       0      r0     0.0850
   3790 H           -9.7833   -15.5888    11.4661 H       0      r0     0.0464
   3791 H          -10.1561   -14.1809    10.3293 H       0      r0     0.0914
   3792 C           -0.3837    -2.9741     7.1937 C       6      r6     0.0999
   3793 C           -1.7223    -2.5533     7.8127 C       6      r6    -0.0035
   3794 C           -2.6456    -3.3536     8.2723 C       6      r6    -0.0252
   3795 C           -2.1650    -4.6890     7.9753 C       6      r6    -0.0108
   3796 C           -0.8268    -6.2702     6.5694 C       5      r5     0.1614
   3797 O            0.4936    -6.0648     6.3461 O       5      r5    -0.5086
   3798 C            0.4955    -4.7605     5.6332 C       5      r5     0.1290
   3799 C           -0.6924    -3.8912     6.0062 C       5      r5    -0.0086
   3800 C           -1.6313    -5.0699     6.6688 C       5      r5     0.0072
   3801 C            1.3887    -4.3642     4.7159 C       0      r0     0.0025
   3802 C            0.2351    -1.7375     6.6154 C       0      r0     0.0118
   3803 C           -2.3975    -5.7345     9.0743 C       0      r0    -0.0251
   3804 C           -1.3852    -7.5892     6.5424 C       0      r0     0.0165
   3805 O            0.5702    -3.5893     8.2692 O       0      r0    -0.6185
   3806 C            1.1800    -1.2085     2.9641 C       5      r5     0.1106
   3807 C            2.4519    -1.7718     2.5546 C       5      r5     0.0012
   3808 C            2.6817    -2.9474     3.2553 C       5      r5    -0.0058
   3809 C            1.5195    -3.1147     4.0058 C       5      r5     0.1225
   3810 O            0.4720    -2.1312     3.9400 O       5      r5    -0.4965
   3811 O           -3.7721    -6.8828     6.8093 O       0      r0    -0.4952
   3812 C           -2.7429    -7.8873     6.6856 C       0      r0     0.1441
   3813 C           -2.8206    -9.2338     6.6716 C       0      r0    -0.0065
   3814 C           -4.0779    -9.9929     6.7647 C       0      r0    -0.0149
   3815 C           -5.4049    -9.5076     6.7069 C       0      r0     0.0029
   3816 O           -0.8098     0.0500     7.5190 O       0      r0    -0.5020
   3817 C           -0.2464     0.1537    10.3174 C       0      r0     0.1563
   3818 C            1.0483    -0.1836    10.0244 C       0      r0    -0.0269
   3819 C            1.2223    -0.6858     8.6553 C       0      r0    -0.0058
   3820 C            0.2003    -0.5361     7.6084 C       0      r0     0.1831
   3821 C           -1.6367    -5.2845    10.3840 C       3      r3     0.0794
   3822 C           -1.9523    -6.0114    11.6515 C       3      r3    -0.0086
   3823 C            0.1118    -5.6425    11.8758 C       0      r0     0.0233
   3824 C            0.4280    -4.2324    11.4087 C       0      r0     0.0933
   3825 O           -0.8463    -3.6931    10.4638 O       0      r0    -0.5304
   3826 C            1.4218    -3.5793    11.6232 C       0      r0    -0.0202
   3827 C            0.6890    -0.1156     2.4510 C       0      r0    -0.0234
   3828 H           -1.9481    -1.4795     8.0431 H       0      r0     0.1155
   3829 H           -3.5105    -3.1383     8.9261 H       0      r0     0.0953
   3830 H           -1.0875    -3.4832     5.1234 H       0      r0     0.0744
   3831 H           -2.5161    -5.1136     5.9784 H       0      r0     0.1053
   3832 H            2.1188    -5.1787     4.6708 H       0      r0     0.0701
   3833 H            1.2214    -2.0326     6.2323 H       0      r0     0.0728
   3834 H           -0.1833    -1.4275     5.6615 H       0      r0     0.1082
   3835 H           -3.4798    -5.8376     9.2717 H       0      r0     0.0754
   3836 H           -2.0301    -6.6962     8.7682 H       0      r0     0.0688
   3837 H           -0.6098    -8.3931     6.4250 H       0      r0     0.0654
   3838 H            3.0785    -1.3128     1.7789 H       0      r0     0.1217
   3839 H            3.6006    -3.5930     3.1992 H       0      r0     0.0800
   3840 H           -1.8994    -9.8504     6.7280 H       0      r0     0.1081
   3841 H           -3.9520   -11.1022     6.6662 H       0      r0     0.1248
   3842 H            1.8499    -0.0836    10.6781 H       0      r0     0.0419
   3843 H            2.0678    -1.2379     8.3467 H       0      r0     0.0619
   3844 H           -2.6734    -6.7295    11.9061 H       0      r0     0.0981
   3845 H            0.9387   -12.1769    15.4575 H       0      r0     0.3551
   3846 H            2.1822    -3.9385    12.3075 H       0      r0     0.0624
   3847 H            1.5596    -2.5442    11.3784 H       0      r0     0.0666
   3848 H            1.2091     0.5395     1.7727 H       0      r0     0.0854
   3849 H           -0.2052     0.2697     2.8513 H       0      r0     0.0592
   3850 C           -0.2839   -10.5179    14.6063 C       6      r6     0.0698
   3851 C           -1.4445   -10.7820    15.5425 C       6      r6    -0.0322
   3852 C           -2.1662   -11.8966    15.6140 C       6      r6    -0.0152
   3853 C           -1.7822   -12.6295    14.4429 C       6      r6     0.0123
   3854 C           -1.1592   -12.8261    12.0620 C       5      r5     0.1432
   3855 O            0.1601   -12.5079    11.7366 O       5      r5    -0.4817
   3856 C            0.3443   -11.2130    12.2166 C       5      r5     0.1715
   3857 C           -0.7027   -10.7051    13.1806 C       5      r5     0.0101
   3858 C           -1.7363   -11.9716    13.1502 C       5      r5     0.0013
   3859 C            1.4411   -10.4043    11.8749 C       0      r0     0.0056
   3860 C            0.1479    -9.2103    15.0544 C       0      r0     0.0190
   3861 C           -1.6520   -14.1582    14.4946 C       0      r0    -0.0211
   3862 C           -1.8964   -13.8263    11.4866 C       0      r0    -0.0126
   3863 O            1.2799   -11.3485    14.9386 O       0      r0    -0.5609
   3864 C            0.8654    -6.8940    12.0926 C       5      r5     0.1380
   3865 C            2.2735    -7.0213    11.6816 C       5      r5    -0.0142
   3866 C            2.6482    -8.3420    11.6890 C       5      r5    -0.0378
   3867 C            1.4691    -9.0159    12.0474 C       5      r5     0.0920
   3868 O            0.3034    -8.1090    12.5262 O       5      r5    -0.5013
   3869 O           -4.1803   -13.4647    12.5671 O       5      r5    -0.4762
   3870 C           -3.2852   -14.0911    11.7126 C       5      r5     0.1162
   3871 C           -3.7590   -15.2418    11.0521 C       5      r5    -0.0339
   3872 C           -5.0570   -15.6027    11.4244 C       5      r5    -0.0338
   3873 C           -5.3821   -14.5817    12.3564 C       5      r5     0.1003
   3874 O            1.1279    -8.4572    17.0522 O       0      r0    -0.4570
   3875 C            4.2785   -10.3820    17.1442 C       0      r0     0.1565
   3876 C            3.3600   -10.0203    16.1957 C       0      r0     0.0013
   3877 C            1.9166   -10.5270    16.2548 C       0      r0     0.0995
   3878 C            1.0186    -9.3471    16.3177 C       0      r0     0.2116
   3879 C           -0.2661   -14.4988    15.1806 C       5      r5     0.1479
   3880 C            0.1447   -15.6897    14.8349 C       5      r5    -0.0226
   3881 C            1.3018   -15.9443    15.6553 C       5      r5    -0.0395
   3882 C            1.4536   -14.7355    16.4634 C       5      r5     0.1091
   3883 O            0.3910   -13.6675    16.0919 O       5      r5    -0.4936
   3884 C            2.4115   -14.8792    17.2098 C       0      r0    -0.0401
   3885 C           -0.7919    -6.2514    11.0151 C       3      r3     0.0189
   3886 H           -1.6118   -10.1348    16.3928 H       0      r0     0.0586
   3887 H           -2.8320   -12.2598    16.4335 H       0      r0     0.1211
   3888 H           -1.0138    -9.7460    12.6982 H       0      r0     0.0876
   3889 H           -2.7228   -11.6659    12.8915 H       0      r0     0.0752
   3890 H            2.1111   -10.9175    11.2264 H       0      r0     0.0600
   3891 H            0.5895    -8.6053    14.2707 H       0      r0     0.1322
   3892 H           -0.8079    -8.5731    15.1719 H       0      r0     0.0556
   3893 H           -2.4205   -14.7074    15.0686 H       0      r0     0.0527
   3894 H           -1.8220   -14.7032    13.5914 H       0      r0     0.0548
   3895 H           -1.3220   -14.2869    10.6691 H       0      r0     0.0576
   3896 H            2.8760    -6.1929    11.3247 H       0      r0     0.0826
   3897 H            3.6327    -8.6812    11.3394 H       0      r0     0.0352
   3898 H           -3.0797   -15.8300    10.4604 H       0      r0     0.0392
   3899 H           -5.6977   -16.3727    11.1727 H       0      r0     0.0526
   3900 H            3.6857    -9.1631    15.5705 H       0      r0     0.0688
   3901 H            1.8776   -11.2315    17.0488 H       0      r0     0.0796
   3902 H           -0.3392   -16.4557    14.1217 H       0      r0     0.0410
   3903 H            1.8512   -16.8542    15.6855 H       0      r0     0.0236
   3904 H            3.0044   -15.8239    17.3391 H       0      r0     0.0320
   3905 H            2.7445   -14.1487    17.9525 H       0      r0     0.0697
   3906 H            0.6658    -4.5210     7.9491 H       0      r0     0.3043
   3907 H           -0.2654    -3.6364     9.5008 H       0      r0     0.3528
   3908 C          -16.0652     1.4196    12.1973 C       0      r0     0.1979
   3909 C          -16.8089     0.2204    12.5166 C       0      r0    -0.0082
   3910 C          -16.5392    -1.1128    12.3667 C       0      r0    -0.0221
   3911 C          -15.4830    -1.7636    11.7600 C       0      r0     0.1625
   3912 C          -15.5088    -3.2819    11.8116 C       0      r0    -0.0120
   3913 O          -14.4805    -1.1913    11.1679 O       0      r0    -0.4922
   3914 O          -16.4731     2.5207    12.0553 O       0      r0    -0.5257
   3915 C          -14.3212    -3.9297    12.6055 C       5      r5     0.1425
   3916 C          -13.9464    -5.2019    12.1855 C       5      r5    -0.0409
   3917 C          -12.9371    -5.5633    13.0329 C       5      r5    -0.0181
   3918 C          -12.7019    -4.4553    13.9870 C       5      r5     0.0841
   3919 O          -13.6992    -3.2696    13.5902 O       5      r5    -0.4522
   3920 C          -11.8490    -4.4607    14.8972 C       0      r0    -0.0346
   3921 C          -14.4982     1.4068    12.1763 C       0      r0     0.0333
   3922 C          -12.9172     0.6621    16.4200 C       0      r0     0.1756
   3923 C          -12.5223     0.0791    15.1790 C       0      r0     0.0019
   3924 C          -12.9231     0.4080    13.9025 C       0      r0     0.0076
   3925 C          -13.9725     1.3790    13.6269 C       0      r0     0.1881
   3926 O          -14.4904     2.0305    14.4542 O       0      r0    -0.4720
   3927 H          -17.7773     0.5911    12.8783 H       0      r0     0.1196
   3928 H          -17.2784    -1.7953    12.8572 H       0      r0     0.0775
   3929 H          -16.4987    -3.5433    12.2397 H       0      r0     0.0911
   3930 H          -15.6119    -3.7325    10.8391 H       0      r0     0.0347
   3931 H          -14.2041    -5.7593    11.2906 H       0      r0     0.0335
   3932 H          -12.4308    -6.5067    12.9964 H       0      r0     0.1263
   3933 H          -11.1436    -5.2704    15.0186 H       0      r0     0.0677
   3934 H          -11.8045    -3.5932    15.5485 H       0      r0     0.0749
   3935 H          -14.0699     0.5864    11.6726 H       0      r0     0.1183
   3936 H          -14.1435     2.2589    11.5719 H       0      r0     0.0773
   3937 H          -11.8376    -0.7763    15.1197 H       0      r0     0.0726
   3938 H          -12.4703    -0.0749    13.0585 H       0      r0     0.0839
   3939 C          -13.4574     2.5496    -3.6235 C       0      r0     0.1836
   3940 C          -13.4137     2.4870    -5.0456 C       0      r0     0.0024
   3941 C          -12.5794     3.0794    -5.9547 C       0      r0    -0.0140
   3942 C          -11.3405     3.7397    -5.6461 C       0      r0     0.1947
   3943 C          -10.6549     4.2086    -7.0107 C       0      r0     0.0101
   3944 O          -10.8738     3.9902    -4.5993 O       0      r0    -0.4955
   3945 O          -14.1547     1.7704    -2.9766 O       0      r0    -0.4734
   3946 C           -9.6566     3.1575    -7.5060 C       5      r5     0.1182
   3947 C           -9.7213     1.9572    -6.8225 C       5      r5    -0.0298
   3948 C           -8.9039     1.1147    -7.4521 C       5      r5    -0.0354
   3949 C           -8.2672     1.8276    -8.5823 C       5      r5     0.0914
   3950 O           -8.8188     3.2570    -8.6218 O       5      r5    -0.4746
   3951 C           -7.4101     1.3095    -9.4001 C       0      r0    -0.0405
   3952 C          -12.9718     3.7307    -2.8738 C       0      r0     0.0341
   3953 C          -14.6668     3.8881    -0.3951 C       0      r0    -0.0184
   3954 C          -15.6316     4.3134    -1.3612 C       0      r0    -0.0470
   3955 C          -15.3261     4.8876    -2.6124 C       0      r0     0.0190
   3956 C          -13.9718     4.9031    -3.1007 C       0      r0     0.1944
   3957 O          -13.6807     5.7011    -3.9324 O       0      r0    -0.5072
   3958 H          -14.0395     1.6949    -5.5489 H       0      r0     0.0761
   3959 H          -12.7879     3.0481    -6.9993 H       0      r0     0.0556
   3960 H          -11.4026     4.3713    -7.8087 H       0      r0     0.1292
   3961 H          -10.2161     5.2160    -6.9259 H       0      r0     0.1017
   3962 H          -10.4217     1.7077    -5.9974 H       0      r0     0.0523
   3963 H           -8.7465     0.0865    -7.1681 H       0      r0     0.0429
   3964 H           -6.9712     0.3180    -9.2798 H       0      r0     0.0979
   3965 H           -7.0020     1.9101   -10.1736 H       0      r0     0.0545
   3966 H          -12.8431     3.4898    -1.7816 H       0      r0     0.0899
   3967 H          -11.9323     3.9789    -3.1282 H       0      r0     0.1382
   3968 H          -16.6841     4.2259    -1.1423 H       0      r0     0.0788
   3969 H          -16.1232     5.3041    -3.2000 H       0      r0     0.1364
   3970 C          -13.0507     6.2933    17.8449 C       5      r5     0.1331
   3971 O          -12.0754     7.0825    17.0357 O       5      r5    -0.4674
   3972 C          -11.6382     7.9555    18.0621 C       5      r5     0.1160
   3973 C          -12.4301     7.8144   -18.6880 C       5      r5    -0.0261
   3974 C          -13.2987     6.7400   -18.8319 C       5      r5    -0.0101
   3975 C          -13.8905     5.2666    17.3327 C       0      r0     0.0157
   3976 C          -10.2897     9.9915    18.7165 C       5      r5     0.1472
   3977 O           -9.1616    10.6234    18.6353 O       5      r5    -0.4746
   3978 C           -9.6712    11.9067   -18.1386 C       5      r5     0.1718
   3979 C          -11.1204    11.7697   -17.8885 C       5      r5    -0.0143
   3980 C          -11.4098    10.6003   -18.5400 C       5      r5    -0.0129
   3981 C          -10.5637     8.8245    17.9281 C       0      r0     0.0049
   3982 C          -14.8262     4.4986    18.0686 C       5      r5     0.1355
   3983 C          -15.2246     3.5469    17.1359 C       5      r5    -0.0094
   3984 C          -16.2274     2.8650    17.9633 C       5      r5    -0.0153
   3985 C          -16.2793     3.4686   -18.6723 C       5      r5     0.1137
   3986 O          -15.2769     4.5847   -18.5221 O       5      r5    -0.4849
   3987 C          -17.0634     2.8548   -17.9532 C       0      r0    -0.0307
   3988 H          -12.2753     8.2831   -17.7622 H       0      r0     0.0739
   3989 H          -13.9922     6.3843   -18.1020 H       0      r0     0.0914
   3990 H          -13.5890     4.9954    16.2959 H       0      r0     0.0793
   3991 H          -11.7842    12.4560   -17.3671 H       0      r0     0.0620
   3992 H          -12.4012    10.1713   -18.6596 H       0      r0     0.0660
   3993 H           -9.8468     8.6801    17.1250 H       0      r0     0.0918
   3994 H          -14.9064     3.2612    16.1380 H       0      r0     0.1089
   3995 H          -16.9469     2.1330    17.6792 H       0      r0     0.0449
   3996 H          -17.6874     2.0507   -18.3253 H       0      r0     0.0536
   3997 H          -17.1296     3.0004   -16.8913 H       0      r0     0.0591
   3998 C          -16.0344    15.4147   -17.7692 C       5      r5     0.1324
   3999 O          -15.4367    16.6998   -18.0735 O       5      r5    -0.4675
   4000 C          -14.1375    16.2172   -18.4897 C       5      r5     0.1187
   4001 C          -13.9068    14.8376   -18.5089 C       5      r5    -0.0281
   4002 C          -15.1685    14.3606   -18.0490 C       5      r5     0.0118
   4003 C          -17.2837    15.1872   -17.1364 C       0      r0     0.0002
   4004 C          -11.7043    16.8189    18.9199 C       0      r0     0.1278
   4005 O          -11.0095    17.1426    17.7775 O       0      r0    -0.6007
   4006 C           -8.8609    15.9009   -18.5185 C       0      r0     0.1715
   4007 C           -9.8951    15.7523   -17.7152 C       0      r0     0.0016
   4008 C          -11.3399    16.2354   -17.9260 C       0      r0    -0.0334
   4009 C          -13.1262    17.1345   -18.8937 C       0      r0    -0.0050
   4010 C          -17.9018    13.9284   -16.9011 C       5      r5     0.1275
   4011 C           18.1977    14.2566   -16.2317 C       5      r5    -0.0186
   4012 C           17.6598    12.9246   -15.9977 C       5      r5    -0.0150
   4013 C           18.5662    11.9487   -16.5947 C       5      r5     0.1126
   4014 O          -17.4707    12.5920   -17.2260 O       5      r5    -0.4552
   4015 C           18.1165    10.8182   -16.4282 C       0      r0    -0.0404
   4016 H          -13.0469    14.3231   -18.8383 H       0      r0     0.0475
   4017 H          -15.3700    13.2876   -17.8929 H       0      r0     0.1518
   4018 H          -17.7753    16.1544   -17.0196 H       0      r0     0.0715
   4019 H           -9.6989    15.1056   -16.8232 H       0      r0     0.1135
   4020 H          -12.0393    16.0450   -17.0987 H       0      r0     0.0465
   4021 H          -13.4848    18.1276    18.8116 H       0      r0     0.0656
   4022 H           17.9354    15.2270   -15.8929 H       0      r0     0.0704
   4023 H           16.7741    12.6915   -15.4465 H       0      r0     0.0583
   4024 H           17.1500    10.6794   -15.8923 H       0      r0     0.0530
   4025 H          -18.6122     9.9510   -16.8231 H       0      r0     0.0510
   4026 C          -11.9397     5.5725     6.6300 C       5      r5     0.1355
   4027 O          -13.0036     6.4393     7.2403 O       5      r5    -0.4731
   4028 C          -13.2793     7.0948     5.9610 C       5      r5     0.1579
   4029 C          -12.5529     6.7903     4.7175 C       5      r5    -0.0573
   4030 C          -11.8040     5.7668     5.2086 C       5      r5    -0.0120
   4031 C          -10.9832     4.8282     7.1573 C       0      r0     0.0130
   4032 C          -14.0967     8.0534     5.6361 C       0      r0     0.1499
   4033 H          -12.5979     7.1917     3.7073 H       0      r0     0.0282
   4034 H          -11.0251     5.2419     4.6808 H       0      r0     0.1295
   4035 H          -10.0980     4.1985     7.3424 H       0      r0     0.0899
   4036 H          -14.1596     8.4312     4.6621 H       0      r0     0.0617
   4037 C           15.5429     8.7945     3.1418 C       5      r5     0.1158
   4038 O           16.6748     9.1033     2.1053 O       5      r5    -0.4574
   4039 C           17.4142     9.9470     2.9430 C       5      r5     0.1356
   4040 C           16.9921    10.2045     4.2294 C       5      r5    -0.0341
   4041 C           15.8363     9.5133     4.3868 C       5      r5    -0.0311
   4042 C           14.4396     8.1062     3.0091 C       0      r0    -0.0109
   4043 C           18.5669    10.7639     2.4544 C       0      r0    -0.0091
   4044 H           17.3700    10.8991     4.8869 H       0      r0     0.0317
   4045 H           15.1829     9.5008     5.2716 H       0      r0     0.0486
   4046 H           13.5276     7.6022     3.0571 H       0      r0     0.0630
   4047 H          -18.3125    11.5821     3.0182 H       0      r0     0.0656
   4048 C          -17.8186   -16.8685    14.1760 C       5      r5     0.0584
   4049 C           18.0989   -17.3425    14.6687 C       5      r5    -0.0501
   4050 C           18.2113   -18.5937    14.3983 C       5      r5    -0.0189
   4051 C          -17.7451   -18.9247    13.6455 C       5      r5     0.1543
   4052 C          -16.8308   -18.4187    11.2630 C       5      r5     0.1694
   4053 O          -15.9802   -17.3639    11.2556 O       5      r5    -0.4774
   4054 C          -16.7636   -16.2590    11.8104 C       5      r5     0.1274
   4055 C          -17.9769   -16.7258    12.5905 C       5      r5    -0.0126
   4056 C          -17.9818   -18.1845    12.2287 C       5      r5     0.0275
   4057 C          -16.4746   -15.0046    11.6813 C       0      r0     0.0053
   4058 C          -17.4096   -15.6261    14.9861 C       0      r0    -0.0217
   4059 C          -17.5227    17.4889    13.3875 C       0      r0    -0.0036
   4060 C          -16.6658    18.4577    10.5422 C       0      r0     0.0235
   4061 O          -16.6952   -18.2260    14.0879 O       5      r5    -0.4578
   4062 C          -17.8411   -11.6265    12.3621 C       5      r5     0.1491
   4063 C           18.4673   -12.3836    13.1150 C       5      r5    -0.0148
   4064 C          -18.2255   -13.7071    12.9685 C       5      r5    -0.0286
   4065 C          -17.1125   -13.7511    12.1549 C       5      r5     0.1253
   4066 O          -16.6263   -12.5280    11.7354 O       5      r5    -0.4291
   4067 O           18.2674    17.6199    10.8580 O       5      r5    -0.5050
   4068 C          -17.6065    17.4240    10.3518 C       5      r5     0.1183
   4069 C          -17.2526    16.2597     9.7073 C       5      r5    -0.0114
   4070 C          -18.4283    15.5114     9.6838 C       5      r5    -0.0311
   4071 C           17.6950    16.2182    10.3036 C       5      r5     0.0906
   4072 O          -16.4069   -15.1597    17.2080 O       5      r5    -0.4752
   4073 C          -15.9142   -16.2583    18.2774 C       5      r5     0.0977
   4074 C          -16.2132   -17.6135    17.9831 C       5      r5    -0.0363
   4075 C          -16.8025   -17.4207    16.6969 C       5      r5     0.0061
   4076 C          -16.8655   -16.0701    16.3534 C       5      r5     0.1525
   4077 C          -17.5902    16.7312    14.7087 C       5      r5     0.1476
   4078 C          -18.1020    15.4403    14.6211 C       5      r5    -0.0336
   4079 C          -18.5206    15.1006    15.8618 C       5      r5    -0.0420
   4080 C          -17.9643    16.0992    16.8683 C       5      r5     0.0740
   4081 O          -17.2977    17.2708    15.9046 O       5      r5    -0.4539
   4082 C          -15.3144   -16.1873   -18.5516 C       0      r0    -0.0190
   4083 C           16.5827    15.7493    10.3571 C       0      r0    -0.0452
   4084 H           17.2606   -16.7711    15.1054 H       0      r0     0.0474
   4085 H           17.4607    18.6864    14.6180 H       0      r0     0.0523
   4086 H           18.4124   -16.1710    12.3522 H       0      r0     0.0231
   4087 H           18.3119   -18.6147    11.8995 H       0      r0     0.0734
   4088 H          -15.5181   -14.7754    11.2209 H       0      r0     0.0842
   4089 H          -16.6485   -14.9798    14.4964 H       0      r0     0.0850
   4090 H          -18.3464   -14.9684    15.2078 H       0      r0     0.0446
   4091 H          -18.2412    17.2819    12.5847 H       0      r0     0.0871
   4092 H          -16.5322    17.3464    12.9343 H       0      r0     0.1190
   4093 H          -15.7111    18.3787     9.9951 H       0      r0     0.0846
   4094 H           17.6056   -12.0048    13.5519 H       0      r0     0.0601
   4095 H           18.5069   -14.5245    13.3056 H       0      r0     0.0284
   4096 H          -16.2568    15.9838     9.3533 H       0      r0     0.1019
   4097 H          -18.4430    14.4744     9.2821 H       0      r0     0.0457
   4098 H          -15.9649   -18.5349    18.4820 H       0      r0     0.0601
   4099 H          -17.0486   -18.2696    16.0689 H       0      r0     0.1395
   4100 H          -18.2960    14.8935    13.7643 H       0      r0     0.0299
   4101 H           18.1279    14.2193    16.1407 H       0      r0     0.0280
   4102 H          -15.1422   -17.0092   -17.8596 H       0      r0     0.0575
   4103 H          -14.9695   -15.2274   -18.1976 H       0      r0     0.1045
   4104 H           16.2754    14.7807     9.9745 H       0      r0     0.0360
   4105 H           15.7228    16.3121    10.7957 H       0      r0     0.0602
   4106 C           14.8608    13.4234    17.9178 C       5      r5     0.0654
   4107 C           15.3889    12.2672    17.1459 C       5      r5    -0.0633
   4108 C           14.7410    11.3068    17.7470 C       5      r5    -0.0423
   4109 C           13.7872    11.8401    18.8407 C       5      r5     0.1266
   4110 C           14.6650    12.4712   -16.6547 C       5      r5     0.1383
   4111 O           14.5210    13.8598   -16.5249 O       5      r5    -0.4804
   4112 C           15.1964    14.4126   -17.6176 C       5      r5     0.1505
   4113 C           15.6341    13.3859   -18.6665 C       5      r5    -0.0106
   4114 C           14.9820    12.0815   -18.0570 C       5      r5     0.0171
   4115 C           15.4809    15.7347   -17.7585 C       0      r0     0.0246
   4116 C           14.9378    14.8083    17.1838 C       0      r0    -0.0133
   4117 C           12.8164    10.6670   -18.7201 C       0      r0    -0.0000
   4118 C           14.6286    11.6162   -15.5944 C       0      r0    -0.0044
   4119 O           13.3213    13.0910    18.5737 O       5      r5    -0.4676
   4120 C           17.3065    17.6759    17.7628 C       5      r5     0.1208
   4121 C           18.1028    16.4853    17.6967 C       5      r5     0.0026
   4122 C           17.4774    15.6840    18.7073 C       5      r5    -0.0406
   4123 C           16.4324    16.3722   -18.6555 C       5      r5     0.1276
   4124 O           16.2348    17.6902   -18.9481 O       5      r5    -0.4466
   4125 O           14.9218     9.5842   -17.0269 O       5      r5    -0.4912
   4126 C           14.7789    10.2010   -15.7912 C       5      r5     0.1231
   4127 C           14.5784     9.3913   -14.6390 C       5      r5    -0.0257
   4128 C           14.5885     8.0032   -14.9901 C       5      r5    -0.0420
   4129 C           14.6617     8.1264   -16.3808 C       5      r5     0.0971
   4130 O           14.0602    16.1308    15.1480 O       5      r5    -0.4596
   4131 C           12.7921    15.9160    14.3227 C       5      r5     0.1049
   4132 C           12.1207    14.7367    14.8802 C       5      r5    -0.0375
   4133 C           12.8854    14.2145    15.9077 C       5      r5    -0.0064
   4134 C           13.9358    15.0826    16.0235 C       5      r5     0.1533
   4135 C           11.7385    11.1943   -17.7442 C       0      r0     0.1722
   4136 C           11.7387    12.4835   -17.3429 C       0      r0     0.0268
   4137 C           10.8209    13.0292   -16.3275 C       0      r0    -0.0055
   4138 C            9.9883    12.3021   -15.5195 C       0      r0     0.1252
   4139 O           10.9455    10.2354   -17.3610 O       0      r0    -0.4638
   4140 C           12.2533    16.5205    13.3197 C       0      r0    -0.0447
   4141 C           14.5191     6.9410   -16.9122 C       0      r0    -0.0335
   4142 H           16.0373    12.2258    16.3145 H       0      r0     0.0321
   4143 H           14.8583    10.3067    17.3994 H       0      r0     0.0472
   4144 H           16.7308    13.3983   -18.8131 H       0      r0     0.0227
   4145 H           15.6392    11.2592   -18.1753 H       0      r0     0.0708
   4146 H           14.8644    16.3809   -17.1147 H       0      r0     0.1203
   4147 H           14.9169    15.5797    17.9465 H       0      r0     0.0935
   4148 H           15.9123    15.1242    16.7685 H       0      r0     0.0508
   4149 H           12.3695    10.1041    18.3961 H       0      r0     0.0501
   4150 H           13.4823     9.9259   -18.1776 H       0      r0     0.1235
   4151 H           14.5250    11.9765   -14.6152 H       0      r0     0.0747
   4152 H          -17.1162    15.7199    17.4638 H       0      r0     0.0950
   4153 H           17.7269    14.6653    18.9614 H       0      r0     0.0274
   4154 H           14.4207     9.7877   -13.6078 H       0      r0     0.1065
   4155 H           14.5930     7.1618   -14.3659 H       0      r0     0.0489
   4156 H           11.1250    14.3311    14.5952 H       0      r0     0.0290
   4157 H           12.6505    13.3287    16.5456 H       0      r0     0.0973
   4158 H           12.4778    13.2161   -17.6764 H       0      r0     0.1599
   4159 H           10.8097    14.1138   -16.1090 H       0      r0     0.1073
   4160 H           11.3588    16.1428    12.8446 H       0      r0     0.0405
   4161 H           12.6817    17.3519    12.7589 H       0      r0     0.0659
   4162 H           14.4108     6.1065   -16.2695 H       0      r0     0.0772
   4163 H           14.5619     6.7003   -18.0112 H       0      r0     0.0940
   4164 C          -12.5276   -17.9873    15.1955 C       6      r6     0.1110
   4165 C          -13.4845   -18.7025    16.1488 C       6      r6    -0.0359
   4166 C          -13.9723    18.1288    15.7760 C       6      r6    -0.0196
   4167 C          -13.7017    17.6296    14.3937 C       6      r6    -0.0037
   4168 C          -12.9337    18.4292    12.1589 C       5      r5     0.1448
   4169 O          -12.1334   -18.4552    11.8772 O       5      r5    -0.4894
   4170 C          -12.6853   -17.4521    12.6436 C       5      r5     0.1682
   4171 C          -13.4469   -17.9498    13.8638 C       5      r5     0.0207
   4172 C          -13.8153    18.6568    13.3225 C       5      r5     0.0207
   4173 C          -12.7050   -16.1189    12.2515 C       0      r0     0.0108
   4174 C          -12.4291   -16.6681    15.8759 C       0      r0     0.0278
   4175 C          -13.3265    16.3542    14.2633 C       0      r0    -0.0050
   4176 C          -12.9709    17.4383    11.2334 C       0      r0     0.0182
   4177 O          -11.1738   -18.4087    14.9521 O       0      r0    -0.5816
   4178 C          -14.4339   -13.7890    14.3293 C       5      r5     0.1251
   4179 C          -13.8904   -12.9897    13.2325 C       5      r5    -0.0056
   4180 C          -13.2405   -13.8240    12.3191 C       5      r5    -0.0276
   4181 C          -13.3224   -15.0846    12.9627 C       5      r5     0.1151
   4182 O          -14.0995   -15.1828    14.2274 O       5      r5    -0.4963
   4183 O          -15.0710    16.3586    12.0418 O       0      r0    -0.5804
   4184 C          -13.8684    16.3269    11.2628 C       0      r0     0.1235
   4185 C          -13.5180    15.2074    10.5215 C       0      r0    -0.0167
   4186 C          -14.2355    13.9650    10.4548 C       0      r0    -0.0192
   4187 C          -15.4398    13.5937    11.0542 C       0      r0    -0.0106
   4188 O          -11.6958   -15.8407    17.8395 O       0      r0    -0.4924
   4189 C          -11.0735   -17.4388   -17.9907 C       0      r0     0.1751
   4190 C          -10.8663   -18.4393   -18.9482 C       0      r0    -0.0064
   4191 C          -11.3383   -18.1996    17.6963 C       0      r0     0.0147
   4192 C          -11.8161   -16.8742    17.2921 C       0      r0     0.1907
   4193 C          -13.1733    15.5002    15.3912 C       5      r5     0.0631
   4194 C          -14.2137    15.0602    16.2454 C       3      r3    -0.0210
   4195 C          -12.9459    13.3669    16.3042 C       5      r5     0.0067
   4196 C          -11.6075    13.9256    16.6797 C       5      r5     0.0977
   4197 O          -11.4747    15.2565    16.0228 O       5      r5    -0.5145
   4198 C          -10.7927    13.3382    17.3681 C       0      r0    -0.0372
   4199 C          -15.0924   -13.2439    15.3475 C       0      r0    -0.0180
   4200 H          -13.6808   -18.3136    17.0570 H       0      r0     0.0421
   4201 H          -14.5734    17.5184    16.4457 H       0      r0     0.0848
   4202 H          -14.3019   -17.3245    14.1949 H       0      r0     0.1277
   4203 H          -14.8393    18.5553    13.1885 H       0      r0     0.1255
   4204 H          -12.3637   -15.7930    11.2702 H       0      r0     0.0491
   4205 H          -11.7968   -15.9676    15.3328 H       0      r0     0.0876
   4206 H          -13.3897   -16.0415    15.8878 H       0      r0     0.1154
   4207 H          -15.2817    15.3614    12.1753 H       0      r0     0.2493
   4208 H          -13.0518    16.0092    13.3091 H       0      r0     0.0713
   4209 H          -12.2193    17.5268    10.4691 H       0      r0     0.0879
   4210 H          -14.1573   -11.9795    13.0318 H       0      r0     0.0841
   4211 H          -12.8534   -13.6090    11.3522 H       0      r0     0.0426
   4212 H          -12.5020    15.2856    10.2122 H       0      r0     0.0640
   4213 H          -13.8552    13.2067     9.7152 H       0      r0     0.1134
   4214 H          -10.3212    18.6505   -18.6053 H       0      r0     0.0822
   4215 H          -11.3851    18.9675    17.0073 H       0      r0     0.1434
   4216 H          -14.3144    15.2082    17.3188 H       0      r0     0.0622
   4217 H          -16.7510     7.2238    17.4728 H       0      r0     0.3038
   4218 H          -10.9794    12.3488    17.7913 H       0      r0     0.0512
   4219 H           -9.8386    13.7470    17.5564 H       0      r0     0.0717
   4220 H          -15.2437   -12.1625    15.4081 H       0      r0     0.0535
   4221 H          -15.3677   -13.9010    16.1582 H       0      r0     0.1370
   4222 C          -16.6854     9.2788    17.6728 C       6      r6     0.1337
   4223 C          -18.0013     9.9658    18.0464 C       6      r6    -0.0383
   4224 C           18.0057     9.5333    17.7271 C       6      r6    -0.0561
   4225 C           18.2036     8.4881    16.7924 C       6      r6    -0.0212
   4226 C          -17.6771     7.3136    14.9954 C       5      r5     0.1458
   4227 O          -16.3738     7.0183    15.2583 O       5      r5    -0.5042
   4228 C          -15.7465     8.2579    15.5355 C       5      r5     0.1686
   4229 C          -16.7130     9.2671    16.0869 C       5      r5     0.0095
   4230 C          -18.0995     8.5866    15.6756 C       5      r5     0.0035
   4231 C          -14.4814     8.6445    15.1669 C       0      r0     0.0229
   4232 C          -15.4955    10.2962    18.0877 C       0      r0     0.0130
   4233 C           17.1267     7.3874    16.7864 C       0      r0    -0.0193
   4234 C          -18.4898     6.6371    14.1574 C       0      r0    -0.0058
   4235 O          -16.5231     7.9813    18.1310 O       0      r0    -0.5761
   4236 C          -13.2211    12.0256    15.7867 C       5      r5     0.1111
   4237 C          -12.0979    11.2266    15.4643 C       5      r5    -0.0336
   4238 C          -12.4805     9.9412    15.0996 C       5      r5    -0.0243
   4239 C          -13.8656     9.9643    15.3381 C       5      r5     0.1200
   4240 O          -14.4875    11.2071    15.6984 O       5      r5    -0.4800
   4241 O           17.0717     8.4650    13.9181 O       5      r5    -0.4874
   4242 C           17.4509     7.1317    13.7494 C       5      r5     0.1222
   4243 C           16.6438     6.1800    13.0665 C       5      r5    -0.0292
   4244 C           15.5324     6.8764    12.6832 C       5      r5    -0.0174
   4245 C           15.7055     8.3518    13.1013 C       5      r5     0.2252
   4246 O          -14.6350    11.3678   -17.8389 O       5      r5    -0.4704
   4247 C          -14.8379    10.9595   -16.2379 C       5      r5     0.1069
   4248 C          -15.6214     9.7402   -16.2164 C       5      r5    -0.0263
   4249 C          -15.9846     9.4069   -17.5483 C       5      r5     0.0047
   4250 C          -15.3538    10.3035   -18.3536 C       5      r5     0.1574
   4251 C           16.9538     6.6495    18.2097 C       5      r5     0.1450
   4252 C           17.8843     6.9177   -18.8434 C       5      r5    -0.0136
   4253 C           17.8190     5.9659   -17.8650 C       5      r5    -0.0316
   4254 C           16.7243     5.0807   -18.2153 C       5      r5     0.0844
   4255 O           16.0727     5.6485    18.3325 O       5      r5    -0.4558
   4256 C           16.3078     4.1010   -17.4669 C       0      r0    -0.0361
   4257 C          -13.6998    14.0651    15.3662 C       5      r5    -0.0002
   4258 H          -17.9773    10.8370    18.7135 H       0      r0     0.0626
   4259 H           17.0426     9.8238    18.1346 H       0      r0     0.0501
   4260 H          -16.5759    10.2240    15.6971 H       0      r0     0.0713
   4261 H          -18.5960     9.2152    14.8964 H       0      r0     0.0978
   4262 H          -13.7606     7.9994    14.6967 H       0      r0     0.0933
   4263 H          -14.5655    10.0153    17.5193 H       0      r0     0.0988
   4264 H          -15.6110    11.3220    17.6998 H       0      r0     0.0915
   4265 H           16.1676     7.7342    16.3559 H       0      r0     0.0883
   4266 H           17.3887     6.6823    16.0051 H       0      r0     0.0656
   4267 H          -18.1986     5.6141    13.8137 H       0      r0     0.0470
   4268 H          -11.0850    11.6454    15.3905 H       0      r0     0.0486
   4269 H          -11.8927     9.0811    14.7435 H       0      r0     0.0757
   4270 H           16.8506     5.1340    12.8734 H       0      r0     0.0474
   4271 H           14.8481     6.6302    11.9774 H       0      r0     0.0483
   4272 H          -16.0099     9.3568   -15.3310 H       0      r0     0.0438
   4273 H          -16.5891     8.5099   -17.8777 H       0      r0     0.1018
   4274 H          -18.5458     7.6413   -18.9033 H       0      r0     0.0806
   4275 H           18.4111     5.8742   -17.0062 H       0      r0     0.0482
   4276 H           16.8250     3.8942   -16.5860 H       0      r0     0.0486
   4277 H           15.4419     3.4927   -17.7291 H       0      r0     0.0780
   4278 H          -11.2232   -18.7278    14.0357 H       0      r0     0.3029
   4279 H          -11.1932    16.4192    17.0533 H       0      r0     0.3613
   4280 C            5.7638    -8.8752     7.3065 C       0      r0     0.1940
   4281 C            4.5703    -8.0087     7.0161 C       0      r0    -0.0222
   4282 C            3.3872    -8.4612     6.5632 C       0      r0    -0.0370
   4283 C            3.0543    -9.7957     6.5123 C       0      r0     0.1285
   4284 C            1.6756   -10.1366     6.0988 C       0      r0    -0.0056
   4285 O            3.7934   -10.8013     6.9904 O       0      r0    -0.4963
   4286 O            6.5931    -8.7743     8.1265 O       0      r0    -0.4670
   4287 C            0.7342   -10.2110     7.2763 C       5      r5     0.1398
   4288 C            1.0209    -9.4906     8.4209 C       5      r5    -0.0192
   4289 C           -0.0365    -9.7839     9.2831 C       5      r5    -0.0157
   4290 C           -0.9804   -10.7602     8.7479 C       5      r5     0.0884
   4291 O           -0.3821   -10.9667     7.1892 O       5      r5    -0.4825
   4292 C           -2.0369   -11.1661     9.1660 C       0      r0    -0.0334
   4293 C            5.9516    -9.8875     6.1564 C       0      r0     0.0342
   4294 C            9.4500    -7.0504     4.2317 C       0      r0     0.1107
   4295 C            8.8809    -8.2751     4.3916 C       0      r0    -0.0085
   4296 C            7.7729    -8.6163     5.3506 C       0      r0     0.0199
   4297 C            7.1008    -9.6921     5.2269 C       0      r0     0.1491
   4298 O            7.2441   -10.7044     4.3024 O       0      r0    -0.4880
   4299 H            4.6550    -7.0065     7.1385 H       0      r0     0.0506
   4300 H            2.6488    -7.7645     6.2571 H       0      r0     0.0583
   4301 H            1.2253    -9.4751     5.3591 H       0      r0     0.0551
   4302 H            1.6684   -11.0549     5.4386 H       0      r0     0.0807
   4303 H            1.8133    -8.7808     8.6130 H       0      r0     0.0483
   4304 H           -0.1640    -9.3629    10.2439 H       0      r0     0.0694
   4305 H           -2.5642   -10.8789    10.0792 H       0      r0     0.0503
   4306 H           -2.6306   -11.9331     8.6682 H       0      r0     0.0592
   4307 H            6.0100   -10.9544     6.4607 H       0      r0     0.1082
   4308 H            5.1003    -9.8201     5.5001 H       0      r0     0.0838
   4309 H            9.3224    -8.9510     3.6174 H       0      r0     0.0758
   4310 H            7.5040    -7.8555     6.0826 H       0      r0     0.0988
   4311 C            9.8585    12.4412    -4.1604 C       0      r0     0.2164
   4312 C           11.0329    13.1432    -4.7440 C       0      r0     0.0124
   4313 C           12.0368    13.7360    -3.9794 C       0      r0    -0.0195
   4314 C           12.2985    13.3912    -2.6449 C       0      r0     0.1369
   4315 C           13.4032    14.0754    -2.0126 C       0      r0     0.0029
   4316 O           11.7462    12.4762    -1.9220 O       0      r0    -0.4998
   4317 O            9.2305    11.5765    -4.6394 O       0      r0    -0.4618
   4318 C           13.5465    15.5612    -2.5344 C       5      r5     0.1160
   4319 C           12.7370    16.5997    -2.1779 C       5      r5    -0.0406
   4320 C           13.0983    17.6535    -2.9724 C       5      r5    -0.0446
   4321 C           14.1777    17.2082    -3.8412 C       5      r5     0.0911
   4322 O           14.5093    15.6746    -3.4740 O       5      r5    -0.4672
   4323 C           14.7090    17.9905    -4.7512 C       0      r0    -0.0392
   4324 C            9.3207    13.1426    -2.8942 C       0      r0     0.0177
   4325 C            6.0232    15.5772    -3.6999 C       0      r0     0.1336
   4326 C            5.8378    14.7748    -2.6304 C       0      r0    -0.0403
   4327 C            7.0138    13.9998    -2.4299 C       0      r0    -0.0401
   4328 C            8.2204    14.1652    -3.2573 C       0      r0     0.1708
   4329 O            8.4433    14.9759    -4.0981 O       0      r0    -0.4548
   4330 H           11.0353    13.2979    -5.7741 H       0      r0     0.0891
   4331 H           12.7400    14.4339    -4.3664 H       0      r0     0.0906
   4332 H           13.1414    14.0326    -0.9041 H       0      r0     0.0714
   4333 H           14.3630    13.4748    -2.0487 H       0      r0     0.1329
   4334 H           11.9687    16.5016    -1.4777 H       0      r0     0.0398
   4335 H           12.7546    18.6700    -2.9002 H       0      r0     0.0331
   4336 H           14.3764    18.9607    -4.7897 H       0      r0     0.0426
   4337 H           15.5262    17.7197    -5.3354 H       0      r0     0.0664
   4338 H            9.0474    12.4694    -2.0879 H       0      r0     0.0521
   4339 H           10.0523    13.7812    -2.4169 H       0      r0     0.0825
   4340 H            4.9645    14.7054    -2.0805 H       0      r0     0.0372
   4341 H            7.0542    13.2449    -1.6535 H       0      r0     0.0303
   4342 C           11.3181    -3.7703   -18.2367 C       5      r5     0.1345
   4343 O           10.8381    -4.8898    18.7079 O       5      r5    -0.4806
   4344 C           12.1332    -5.2167    18.2684 C       5      r5     0.1390
   4345 C           13.1923    -4.4467    18.8163 C       5      r5    -0.0065
   4346 C           12.6793    -3.5102   -18.2201 C       5      r5     0.0060
   4347 C           10.4273    -3.0439   -17.4077 C       0      r0     0.0240
   4348 C           13.4231    -6.5899    16.5721 C       5      r5     0.1246
   4349 O           13.5984    -7.8695    15.9305 O       5      r5    -0.4727
   4350 C           15.0571    -7.3957    15.3143 C       5      r5     0.0893
   4351 C           15.4278    -6.0427    15.5822 C       5      r5    -0.0385
   4352 C           14.3308    -5.5193    16.3480 C       5      r5    -0.0326
   4353 C           12.3477    -6.3481    17.4254 C       0      r0     0.0189
   4354 C           10.9298    -2.2651   -16.3447 C       5      r5     0.0984
   4355 C            9.8500    -1.7861   -15.7416 C       5      r5    -0.0219
   4356 C           10.4056    -0.9723   -14.6877 C       5      r5    -0.0271
   4357 C           11.8390    -1.0577   -14.7802 C       5      r5     0.1051
   4358 O           12.5722    -1.9709   -15.8755 O       5      r5    -0.4761
   4359 C           12.3295    -0.3498   -13.8401 C       0      r0    -0.0220
   4360 H           14.2864    -4.6432    18.6391 H       0      r0     0.0768
   4361 H           13.2072    -2.8002   -17.6768 H       0      r0     0.1055
   4362 H            9.3793    -3.2881   -17.5353 H       0      r0     0.0845
   4363 H           16.1878    -5.4812    15.2268 H       0      r0     0.0459
   4364 H           14.2918    -4.4792    16.7564 H       0      r0     0.0307
   4365 H           11.6629    -7.1840    17.4969 H       0      r0     0.0875
   4366 H            8.7469    -1.9699   -15.9785 H       0      r0     0.0718
   4367 H            9.8053    -0.4147   -14.0071 H       0      r0     0.0507
   4368 H           11.7409     0.1437   -13.0955 H       0      r0     0.0732
   4369 H           13.4263    -0.1780   -13.6867 H       0      r0     0.1170
   4370 C            2.5633     6.9532    18.3853 C       5      r5     0.1529
   4371 O            3.6852     7.6948    18.6977 O       5      r5    -0.4976
   4372 C            4.6727     6.4613    18.6285 C       5      r5     0.0763
   4373 C            4.1157     5.2565    18.1824 C       5      r5    -0.0369
   4374 C            2.7755     5.5714    18.0504 C       5      r5     0.0062
   4375 C            1.3270     7.5975    18.2856 C       0      r0     0.0264
   4376 C            7.0208     5.6647   -18.9096 C       0      r0     0.1122
   4377 O            8.3674     6.0982   -18.7001 O       0      r0    -0.5396
   4378 C            9.1361     3.4292   -18.6389 C       0      r0     0.0932
   4379 C            7.7188     3.3121   -18.7706 C       0      r0    -0.0337
   4380 C            6.6917     4.3384   -18.8984 C       0      r0    -0.0406
   4381 C            6.0206     6.6569    18.8830 C       0      r0     0.0025
   4382 C            0.0962     6.9314    17.9738 C       5      r5     0.1603
   4383 C           -1.1381     7.6948    18.0845 C       5      r5     0.0076
   4384 C           -2.2557     6.9014    17.9524 C       5      r5    -0.0189
   4385 C           -1.5922     5.6735    17.5315 C       5      r5     0.1026
   4386 O            0.0235     5.6685    17.5400 O       5      r5    -0.4681
   4387 C           -2.4632     4.8412    17.2470 C       0      r0    -0.0241
   4388 H            4.6219     4.3584    18.0347 H       0      r0     0.0679
   4389 H            2.0396     4.8520    17.6893 H       0      r0     0.1068
   4390 H            1.2639     8.6578    18.5364 H       0      r0     0.0674
   4391 H            7.4572     2.2322   -18.6998 H       0      r0     0.0668
   4392 H            5.7170     3.9164    18.9465 H       0      r0     0.0575
   4393 H            6.2997     7.6971   -18.9086 H       0      r0     0.1161
   4394 H           -1.1531     8.7397    18.2639 H       0      r0     0.0956
   4395 H           -3.2868     7.1322    18.0216 H       0      r0     0.0543
   4396 H           -3.5181     5.0156    17.2872 H       0      r0     0.0536
   4397 H           -2.1888     3.8580    16.8998 H       0      r0     0.0977
   4398 C            7.4959     7.9224    -3.8618 C       5      r5     0.1245
   4399 O            6.1917     8.6375    -3.1453 O       5      r5    -0.4248
   4400 C            6.9540     9.5241    -2.4456 C       5      r5     0.1609
   4401 C            8.3457     9.5494    -2.4453 C       5      r5     0.0053
   4402 C            8.6972     8.5173    -3.2977 C       5      r5     0.0060
   4403 C            7.4849     6.9718    -4.7839 C       0      r0    -0.0110
   4404 C            6.3454    10.4963    -1.4740 C       0      r0    -0.0245
   4405 H            8.9739    10.0845    -1.8118 H       0      r0     0.0587
   4406 H            9.7113     8.3442    -3.6161 H       0      r0     0.0741
   4407 H            7.1394     6.2311    -5.5285 H       0      r0     0.0467
   4408 H            5.2426    10.6184    -1.6680 H       0      r0     0.0555
   4409 C            9.6615     1.5869    -5.5049 C       5      r5     0.1610
   4410 O            8.6413     1.5197    -6.5754 O       5      r5    -0.4554
   4411 C            7.7254     2.5327    -5.8851 C       5      r5     0.1069
   4412 C            8.3225     3.0086    -4.6516 C       5      r5    -0.0349
   4413 C            9.5710     2.4417    -4.3613 C       5      r5    -0.0461
   4414 C           10.7780     0.9231    -5.3701 C       0      r0     0.1643
   4415 C            6.6156     3.0948    -6.3575 C       0      r0    -0.0538
   4416 H            7.9079     3.7271    -3.9279 H       0      r0     0.0374
   4417 H           10.2072     2.5876    -3.5045 H       0      r0     0.0255
   4418 H           11.3768     1.0642    -4.4807 H       0      r0     0.0711
   4419 H            5.7462     3.7663    -6.3864 H       0      r0     0.0219
   4420 C            3.1776    10.8112    12.6991 C       5      r5     0.0502
   4421 C            1.7983    10.6533    13.1976 C       5      r5    -0.0460
   4422 C            1.5166     9.4916    12.7378 C       5      r5    -0.0090
   4423 C            2.7497     8.8780    11.9481 C       5      r5     0.1487
   4424 C            3.9466     9.2643     9.7581 C       5      r5     0.1721
   4425 O            5.0216    10.0525     9.9162 O       5      r5    -0.4697
   4426 C            4.5826    11.2516    10.5438 C       5      r5     0.1396
   4427 C            3.1988    11.0956    11.1616 C       5      r5    -0.0114
   4428 C            2.8295     9.6497    10.6753 C       5      r5     0.0289
   4429 C            5.2225    12.4020    10.3801 C       0      r0     0.0374
   4430 C            4.0681    11.7589    13.5700 C       0      r0    -0.0176
   4431 C            2.4362     7.2903    11.7136 C       0      r0    -0.0013
   4432 C            3.7868     8.2380     8.8203 C       0      r0     0.0182
   4433 O            3.8919     9.1833    12.6216 O       5      r5    -0.4893
   4434 C            4.5647    16.4660    12.0222 C       0      r0     0.0136
   4435 C            3.7688    15.3271    12.2312 C       0      r0    -0.0152
   4436 C            3.9282    14.0281    11.6073 C       0      r0    -0.0055
   4437 C            4.9780    13.7413    10.8668 C       0      r0     0.1408
   4438 O            6.0015    14.6688    10.4520 O       0      r0    -0.4515
   4439 O            1.4036     7.6659     8.9723 O       5      r5    -0.4911
   4440 C            2.6167     7.5551     8.3813 C       5      r5     0.1417
   4441 C            2.7080     6.7210     7.2743 C       5      r5    -0.0009
   4442 C            1.4694     6.1670     6.8942 C       5      r5     0.0082
   4443 C            0.6630     6.7654     7.9379 C       5      r5     0.1214
   4444 O            4.5522    12.1170    16.0738 O       5      r5    -0.4823
   4445 C            4.6078    11.0073    17.2162 C       5      r5     0.1030
   4446 C            4.2215     9.7358    16.6532 C       5      r5    -0.0164
   4447 C            3.9599     9.9252    15.2774 C       5      r5    -0.0101
   4448 C            4.1769    11.2731    15.0807 C       5      r5     0.1454
   4449 C            1.2787     6.7741    12.6048 C       5      r5     0.1442
   4450 C            0.2575     6.2857    11.7815 C       5      r5    -0.0283
   4451 C           -0.7745     6.0993    12.6268 C       5      r5    -0.0460
   4452 C           -0.3538     6.5077    14.0184 C       5      r5     0.0829
   4453 O            1.2025     6.8367    13.8906 O       5      r5    -0.4497
   4454 C            4.9572    11.1751    18.4383 C       0      r0    -0.0165
   4455 C           -0.5397     6.3712     7.7552 C       0      r0    -0.0192
   4456 H            1.1997    11.3295    13.7908 H       0      r0     0.0469
   4457 H            0.5339     9.0029    12.7884 H       0      r0     0.0661
   4458 H            2.5530    11.9408    10.9144 H       0      r0     0.0414
   4459 H            1.9188     9.6076    10.1513 H       0      r0     0.0766
   4460 H            6.1771    12.3018     9.7936 H       0      r0     0.1766
   4461 H            5.0913    12.0289    13.1551 H       0      r0     0.1307
   4462 H            3.6282    12.7821    13.7017 H       0      r0     0.0410
   4463 H            2.1840     7.0405    10.6681 H       0      r0     0.0896
   4464 H            3.2773     6.6219    11.8972 H       0      r0     0.1150
   4465 H            4.6758     7.9370     8.3180 H       0      r0     0.0851
   4466 H            2.8790    15.3651    12.9178 H       0      r0     0.0688
   4467 H            3.2742    13.1780    11.7540 H       0      r0     0.0454
   4468 H            3.6102     6.5646     6.6937 H       0      r0     0.0688
   4469 H            1.3657     5.4527     6.1335 H       0      r0     0.1186
   4470 H            4.2080     8.7930    17.1924 H       0      r0     0.1157
   4471 H            3.7457     9.1921    14.4865 H       0      r0     0.1277
   4472 H            0.2781     6.2154    10.7380 H       0      r0     0.0710
   4473 H           -1.7204     5.7914    12.3006 H       0      r0     0.0432
   4474 H            4.9552    10.3643   -18.8203 H       0      r0     0.0810
   4475 H            5.1942    12.1630    18.8452 H       0      r0     0.0578
   4476 H           -0.8197     5.7746     6.8691 H       0      r0     0.1066
   4477 H           -1.3994     6.7059     8.4446 H       0      r0     0.1166
   4478 C           -5.7893     7.1062    13.7186 C       5      r5     0.0855
   4479 C           -5.8005     5.8280    12.9730 C       5      r5    -0.0297
   4480 C           -6.9739     5.4002    13.3190 C       5      r5    -0.0111
   4481 C           -7.6698     6.3742    14.3711 C       5      r5     0.1659
   4482 C           -7.1872     6.9856    16.8036 C       5      r5     0.1649
   4483 O           -6.4789     8.1760    16.9340 O       5      r5    -0.4719
   4484 C           -5.3874     8.0732    16.0926 C       5      r5     0.1378
   4485 C           -5.4079     6.8411    15.2092 C       5      r5    -0.0138
   4486 C           -6.7214     6.1559    15.6517 C       5      r5     0.0262
   4487 C           -4.3063     8.9093    16.1168 C       0      r0     0.0007
   4488 C           -4.7951     8.0556    13.0103 C       0      r0    -0.0223
   4489 C           -9.1441     5.8568    14.8064 C       0      r0    -0.0026
   4490 C           -8.1325     6.5016    17.6680 C       0      r0    -0.0007
   4491 O           -7.4499     7.6163    14.1026 O       5      r5    -0.4360
   4492 C           -1.0146     9.0651    14.6059 C       5      r5     0.1051
   4493 C           -1.2461     7.6981    14.5201 C       5      r5     0.0038
   4494 C           -2.5670     7.5477    15.0538 C       5      r5    -0.0433
   4495 C           -3.0454     8.8066    15.4511 C       5      r5     0.1159
   4496 O           -2.2812     9.9299    15.2237 O       5      r5    -0.4649
   4497 O           -8.0978     4.1428    16.8757 O       5      r5    -0.4863
   4498 C           -8.6961     5.1853    17.5979 C       5      r5     0.1150
   4499 C           -9.9411     4.9639    18.1978 C       5      r5    -0.0282
   4500 C          -10.4537     3.6789    17.8819 C       5      r5    -0.0452
   4501 C           -9.3627     3.1872    17.1358 C       5      r5     0.0878
   4502 O           -6.6881     8.4833    11.4041 O       5      r5    -0.4405
   4503 C           -6.8901     9.7501    10.3889 C       5      r5     0.0908
   4504 C           -5.7835    10.6482    10.6086 C       5      r5    -0.0023
   4505 C           -4.9163    10.0788    11.5402 C       5      r5    -0.0028
   4506 C           -5.5373     8.9155    11.9238 C       5      r5     0.1631
   4507 C          -10.2117     5.5803    13.7509 C       0      r0     0.1248
   4508 C          -10.6207     4.3628    13.6734 C       0      r0    -0.0121
   4509 C          -11.2052     3.7454    12.3500 C       0      r0    -0.0035
   4510 C          -10.5575     3.6681    11.1988 C       0      r0     0.1539
   4511 O          -10.5961     6.6834    12.7328 O       0      r0    -0.4455
   4512 C           -7.8688     9.9923     9.5524 C       0      r0    -0.0401
   4513 C           -9.6525     1.9706    16.8111 C       0      r0    -0.0464
   4514 H           -5.0787     5.4036    12.3082 H       0      r0     0.0476
   4515 H           -7.5673     4.5491    12.9724 H       0      r0     0.0534
   4516 H           -4.5786     6.2628    15.3338 H       0      r0     0.0227
   4517 H           -6.6746     5.1230    15.9011 H       0      r0     0.0947
   4518 H           -4.5493     9.7316    16.7668 H       0      r0     0.1089
   4519 H           -4.1174     8.7086    13.6829 H       0      r0     0.0452
   4520 H           -3.8392     7.6473    12.7240 H       0      r0     0.0347
   4521 H           -8.8373     4.9580    15.4112 H       0      r0     0.0956
   4522 H           -9.7338     6.5416    15.4277 H       0      r0     0.0917
   4523 H           -8.4109     7.2472    18.4372 H       0      r0     0.0634
   4524 H           -0.4824     5.6973    14.6844 H       0      r0     0.0989
   4525 H           -3.1461     6.6301    15.1248 H       0      r0     0.0214
   4526 H          -10.4759     5.7123    18.7308 H       0      r0     0.0519
   4527 H          -11.4371     3.2544    18.1368 H       0      r0     0.0480
   4528 H           -5.7341    11.6182    10.1134 H       0      r0     0.0800
   4529 H           -4.0498    10.4461    11.9016 H       0      r0     0.0695
   4530 H          -10.3265     3.6572    14.3744 H       0      r0     0.0522
   4531 H          -12.1357     3.2051    12.1314 H       0      r0     0.0670
   4532 H           -7.8331    10.8781     8.9208 H       0      r0     0.0427
   4533 H           -8.6613     9.2621     9.5589 H       0      r0     0.0755
   4534 H          -10.5568     1.5135    17.1592 H       0      r0     0.0514
   4535 H           -9.0392     1.3297    16.1901 H       0      r0     0.0773
   4536 C            7.6458     8.8076    14.6026 C       6      r6     0.1151
   4537 C            6.6444     8.0042    15.4177 C       6      r6    -0.0293
   4538 C            5.9789     6.9373    14.8752 C       6      r6    -0.0375
   4539 C            6.1684     6.6819    13.4837 C       6      r6    -0.0116
   4540 C            7.4246     7.4297    11.4352 C       5      r5     0.1744
   4541 O            8.4543     8.2789    11.4151 O       5      r5    -0.4886
   4542 C            7.9552     9.4739    12.1884 C       5      r5     0.1394
   4543 C            6.9221     9.0962    13.2055 C       5      r5     0.0133
   4544 C            6.3719     7.7722    12.4874 C       5      r5     0.0205
   4545 C            8.2764    10.8106    12.0116 C       0      r0     0.0183
   4546 C            7.6618    10.1212    15.4631 C       0      r0     0.0103
   4547 C            5.9078     5.3468    13.3925 C       0      r0    -0.0227
   4548 C            7.1759     6.5608    10.3874 C       0      r0     0.0494
   4549 O            8.9352     8.1981    14.4403 O       0      r0    -0.6006
   4550 C            6.9232    13.5465    13.9041 C       5      r5     0.1158
   4551 C            7.9206    14.1431    13.0550 C       5      r5    -0.0066
   4552 C            8.4732    13.1695    12.2651 C       5      r5    -0.0174
   4553 C            7.8500    12.0122    12.6715 C       5      r5     0.1270
   4554 O            6.8360    11.9862    13.6886 O       5      r5    -0.5077
   4555 O            4.8101     5.7631    10.8458 O       0      r0    -0.5941
   4556 C            5.9889     5.7946    10.1307 C       0      r0     0.1489
   4557 C            6.4323     5.0060     9.0579 C       0      r0    -0.0127
   4558 C            5.5856     4.1349     8.2723 C       0      r0    -0.0397
   4559 C            4.2867     3.9081     8.6454 C       0      r0    -0.0157
   4560 O            8.1967    11.0697    17.5197 O       0      r0    -0.4646
   4561 C            9.5521     9.6593   -18.3520 C       0      r0     0.2479
   4562 C            9.7512     8.7937    18.3861 C       0      r0     0.0182
   4563 C            8.9987     8.8645    17.1380 C       0      r0     0.0060
   4564 C            8.3158     9.9646    16.7845 C       0      r0     0.1593
   4565 C            5.6298     4.4466    14.4972 C       3      r3    -0.0289
   4566 C            6.1444     4.1061    15.7208 C       3      r3    -0.0328
   4567 C            6.6904     2.0621    15.2337 C       0      r0     0.0131
   4568 C            8.1528     2.3082    15.7159 C       3      r3     0.1551
   4569 O            9.0081     3.2062    15.7402 O       3      r3    -0.4745
   4570 C            8.8713     1.5190    16.4989 C       3      r3     0.0374
   4571 C            6.1823    14.2089    14.7402 C       0      r0    -0.0218
   4572 H            6.4145     8.2214    16.4325 H       0      r0     0.0527
   4573 H            5.3347     6.3276    15.5234 H       0      r0     0.0604
   4574 H            6.1784     9.8450    13.3864 H       0      r0     0.1016
   4575 H            5.4141     8.0873    11.9972 H       0      r0     0.1496
   4576 H            8.9653    10.8027    11.2517 H       0      r0     0.1015
   4577 H            8.0831    11.0418    15.0414 H       0      r0     0.1066
   4578 H            6.6982    10.6817    15.4382 H       0      r0     0.1146
   4579 H            4.2600     5.0283    10.4366 H       0      r0     0.2516
   4580 H            5.9550     4.9364    12.3811 H       0      r0     0.1009
   4581 H            7.9859     6.4606     9.7418 H       0      r0     0.1208
   4582 H            8.0729    15.2234    12.9965 H       0      r0     0.1210
   4583 H            9.2372    13.3915    11.5088 H       0      r0     0.0467
   4584 H            7.3970     5.1583     8.6785 H       0      r0     0.0792
   4585 H            5.9520     3.5612     7.4276 H       0      r0     0.0561
   4586 H           10.4632     8.0070    18.4173 H       0      r0     0.0614
   4587 H            9.0948     8.0910    16.3852 H       0      r0     0.1027
   4588 H            6.8752     4.5118    16.4014 H       0      r0     0.0797
   4589 H            0.5526    -0.5941    16.0518 H       0      r0     0.3195
   4590 H            8.3001     0.7161    16.9285 H       0      r0     0.0772
   4591 H            9.8840     1.6443    16.9286 H       0      r0     0.1160
   4592 H            6.2309    15.2776    14.6359 H       0      r0     0.0658
   4593 H            5.3814    13.7995    15.3505 H       0      r0     0.1101
   4594 C            1.5804     0.9650    15.9050 C       6      r6     0.1012
   4595 C            0.8468     2.2805    15.7795 C       6      r6    -0.0200
   4596 C           -0.1304     2.5162    14.9066 C       6      r6    -0.0422
   4597 C           -0.5695     1.2242    14.4697 C       6      r6    -0.0255
   4598 C           -0.0590    -1.1065    13.7844 C       5      r5     0.1340
   4599 O            0.7881    -1.9260    14.4765 O       5      r5    -0.4876
   4600 C            1.9997    -1.1554    14.5837 C       5      r5     0.1319
   4601 C            1.7617     0.3357    14.5064 C       5      r5    -0.0068
   4602 C            0.3262     0.3123    13.7773 C       5      r5    -0.0171
   4603 C            3.2770    -1.5622    14.7088 C       0      r0    -0.0061
   4604 C            2.7984     1.1875    16.6320 C       0      r0     0.0357
   4605 C           -2.1018     0.9734    14.4427 C       0      r0    -0.0242
   4606 C           -1.1892    -1.5171    13.0356 C       0      r0     0.0030
   4607 O            0.8329    -0.0169    16.7576 O       0      r0    -0.6068
   4608 C            5.9700     0.8874    14.9178 C       5      r5     0.1338
   4609 C            6.6093    -0.3769    15.0106 C       5      r5    -0.0028
   4610 C            5.6778    -1.4010    14.8550 C       5      r5    -0.0157
   4611 C            4.4667    -0.7043    14.7117 C       5      r5     0.1191
   4612 O            4.4753     0.7003    14.6239 O       5      r5    -0.4949
   4613 O           -1.2333     0.7527    11.2985 O       0      r0    -0.4706
   4614 C           -1.8264    -0.7397    12.0316 C       0      r0     0.0822
   4615 C           -3.0053    -1.2445    11.8220 C       0      r0     0.0273
   4616 C           -3.7511    -0.2553    10.9818 C       0      r0     0.0220
   4617 C           -2.8661     0.7628    10.6987 C       0      r0     0.1086
   4618 O            3.7078     2.0544    18.4434 O       0      r0    -0.4697
   4619 C            2.5960     2.5574   -17.0542 C       0      r0     0.0159
   4620 C            1.4463     2.2270   -17.8042 C       0      r0    -0.0264
   4621 C            1.4216     1.7483    18.8083 C       0      r0     0.0009
   4622 C            2.6244     1.6858    18.1037 C       0      r0     0.1803
   4623 C           -2.6489     1.3189    15.9125 C       5      r5     0.1357
   4624 C           -2.2145     0.5530    16.9236 C       5      r5    -0.0201
   4625 C           -2.9748     1.0461    18.0681 C       5      r5    -0.0282
   4626 C           -3.7720     2.1324    17.5691 C       5      r5     0.0901
   4627 O           -3.5560     2.3220    16.0044 O       5      r5    -0.4714
   4628 C           -4.3924     2.6787    18.4778 C       0      r0    -0.0142
   4629 C            5.6990     3.0262    14.8934 C       3      r3     0.0141
   4630 H            1.0977     3.1422    16.3408 H       0      r0     0.0721
   4631 H           -0.6941     3.4210    14.7713 H       0      r0     0.0573
   4632 H            2.5708     0.9155    13.9881 H       0      r0     0.0908
   4633 H            0.4629     0.6938    12.7647 H       0      r0     0.0816
   4634 H            3.3301    -2.6320    14.8070 H       0      r0     0.0794
   4635 H            3.5282     0.3586    16.6561 H       0      r0     0.0998
   4636 H            3.4457     1.8744    16.1034 H       0      r0     0.1063
   4637 H           -2.5979     1.5209    13.6311 H       0      r0     0.0827
   4638 H           -2.5200     0.0107    14.1333 H       0      r0     0.0609
   4639 H           -1.4908    -2.5143    13.2790 H       0      r0     0.0866
   4640 H            7.6686    -0.5488    15.2142 H       0      r0     0.0473
   4641 H            5.7759    -2.4915    15.0288 H       0      r0     0.0968
   4642 H           -3.3088    -2.2139    12.2421 H       0      r0     0.1323
   4643 H           -4.7390    -0.2814    10.6147 H       0      r0     0.1521
   4644 H            0.5469     2.1006   -17.2753 H       0      r0     0.0632
   4645 H            0.4768     1.5379    18.3350 H       0      r0     0.0906
   4646 H           -1.5040    -0.2856    16.8995 H       0      r0     0.0719
   4647 H           -3.0120     0.6068   -18.8708 H       0      r0     0.0930
   4648 H           -4.2974     2.2999   -18.4436 H       0      r0     0.0906
   4649 H           -5.0856     3.5273    18.4027 H       0      r0     0.0881
   4650 H            9.0918     8.0239    13.4672 H       0      r0     0.2951
   4651 H            8.8654     5.1915   -18.5569 H       0      r0     0.2457
   4652 B           18.6207   -19.0124    18.9770 B       7     BOX     0.0000
   4653 B          -18.6207   -19.0124    18.9770 B       7     BOX     0.0000
   4654 B          -18.6207    19.0124    18.9770 B       7     BOX     0.0000
   4655 B           18.6207    19.0124    18.9770 B       7     BOX     0.0000
   4656 B           18.6207   -19.0124   -18.9770 B       7     BOX     0.0000
   4657 B          -18.6207   -19.0124   -18.9770 B       7     BOX     0.0000
   4658 B          -18.6207    19.0124   -18.9770 B       7     BOX     0.0000
   4659 B           18.6207    19.0124   -18.9770 B       7     BOX     0.0000
@<TRIPOS>BOND
     1      1      2      1
     2      1      7      1
     3      1     14      1
     4      2     20      1
     5      3      4      1
     6      3     21      1
     7      4      5      1
     8      4      6      1
     9      5      8      1
    10      5     22      1
    11      5     23      1
    12      8      9      1
    13      8     12      1
    14      9     10      1
    15      9     24      1
    16     10     11      1
    17     10     25      1
    18     11     12      1
    19     11     13      1
    20     13     26      1
    21     13     27      1
    22     14     18      1
    23     14     29      1
    24     15     16      1
    25     15    402      1
    26     16     17      1
    27     16     30      1
    28     17     18      1
    29     17     31      1
    30     18     19      1
    31     32     33      1
    32     32     38      1
    33     33     34      1
    34     33     51      1
    35     34     35      1
    36     34     52      1
    37     35     36      1
    38     35     37      1
    39     36     39      1
    40     36     53      1
    41     36     54      1
    42     39     40      1
    43     39     43      1
    44     40     41      1
    45     40     55      1
    46     41     42      1
    47     41     56      1
    48     42     43      1
    49     42     44      1
    50     44     57      1
    51     44     58      1
    52     45     49      1
    53     45     60      1
    54     46     47      1
    55     46    421      1
    56     47     48      1
    57     47     61      1
    58     48     49      1
    59     48     62      1
    60     50   3670      1
    61     63     64      1
    62     63     67      1
    63     63     68      1
    64     64     65      1
    65     65     66      1
    66     65     74      1
    67     66     67      1
    68     66     81      1
    69     67     82      1
    70     68     75      1
    71     68     83      1
    72     69     70      1
    73     69     73      1
    74     69     74      1
    75     70     71      1
    76     71     72      1
    77     72     73      1
    78     72     84      1
    79     73     85      1
    80     74     86      1
    81     75     76      1
    82     75     79      1
    83     76     77      1
    84     76     87      1
    85     77     78      1
    86     77     88      1
    87     78     79      1
    88     78     80      1
    89     80     89      1
    90     80     90      1
    91     91     92      1
    92     91     95      1
    93     91     96      1
    94     92     93      1
    95     93     94      1
    96     94     95      1
    97     94    109      1
    98     95    110      1
    99     96    103      1
   100     96    111      1
   101     97     98      1
   102     97    101      1
   103     97    102      1
   104     98     99      1
   105     99    100      1
   106    100    101      1
   107    100    112      1
   108    101    113      1
   109    102    114      1
   110    103    104      1
   111    103    107      1
   112    104    105      1
   113    104    115      1
   114    105    106      1
   115    105    116      1
   116    106    107      1
   117    106    108      1
   118    108    117      1
   119    108    118      1
   120    119    123      1
   121    119    124      1
   122    120    121      1
   123    120   1905      1
   124    121    122      1
   125    121    125      1
   126    122    123      1
   127    122    126      1
   128    123    127      1
   129    124    128      1
   130    125    129      1
   131    125   3410      1
   132    130    131      1
   133    130    134      1
   134    131    132      1
   135    132    133      1
   136    132    136      1
   137    133    134      1
   138    133    137      1
   139    135    139      1
   140    135   1904      1
   141    136    140      1
   142    136   3767      1
   143    142    143      1
   144    142   3766      1
   145    143    144      1
   146    143    147      1
   147    144    148      1
   148    145    149      1
   149    146    150      1
   150    147    151      1
   151    152    153      1
   152    152    159      1
   153    152    162      1
   154    152    165      1
   155    153    154      1
   156    153    188      1
   157    154    155      1
   158    154    189      1
   159    155    160      1
   160    155    163      1
   161    155    165      1
   162    156    157      1
   163    156    160      1
   164    156    164      1
   165    157    158      1
   166    158    159      1
   167    158    161      1
   168    159    160      1
   169    159    190      1
   170    160    191      1
   171    161    192      1
   172    162    180      1
   173    162    193      1
   174    162    194      1
   175    163    181      1
   176    163    195      1
   177    163    196      1
   178    164    172      1
   179    164    197      1
   180    166    167      1
   181    166   3196      1
   182    167    168      1
   183    167    198      1
   184    168    169      1
   185    168    199      1
   186    169    170      1
   187    170   3922      1
   188    171    172      1
   189    171    175      1
   190    172    173      1
   191    173    174      1
   192    173    200      1
   193    174    175      1
   194    174    201      1
   195    175    187      1
   196    176    177      1
   197    176    180      1
   198    177    178      1
   199    177    186      1
   200    178    179      1
   201    178    202      1
   202    179    180      1
   203    179    203      1
   204    181    182      1
   205    181    185      1
   206    182    183      1
   207    182    204      1
   208    183    184      1
   209    183    205      1
   210    184    185      1
   211    184    225      1
   212    184    256      1
   213    186    206      1
   214    186    207      1
   215    187    208      1
   216    187    209      1
   217    210    211      1
   218    210    217      1
   219    210    220      1
   220    211    246      1
   221    212    213      1
   222    212    247      1
   223    213    218      1
   224    213    221      1
   225    213    223      1
   226    214    215      1
   227    214    218      1
   228    214    222      1
   229    215    216      1
   230    216    219      1
   231    217    248      1
   232    218    249      1
   233    219    250      1
   234    220    238      1
   235    220    251      1
   236    220    252      1
   237    221    239      1
   238    221    253      1
   239    221    254      1
   240    222    230      1
   241    222    255      1
   242    224    225      1
   243    224    228      1
   244    225    226      1
   245    226    227      1
   246    226    257      1
   247    227    228      1
   248    229    230      1
   249    229    233      1
   250    230    231      1
   251    231    232      1
   252    231    258      1
   253    232    233      1
   254    232    259      1
   255    233    245      1
   256    234    235      1
   257    234    238      1
   258    235    236      1
   259    235    244      1
   260    236    237      1
   261    236    260      1
   262    237    238      1
   263    237    261      1
   264    239    240      1
   265    239    243      1
   266    240    241      1
   267    240    262      1
   268    241    242      1
   269    241    263      1
   270    243   3470      1
   271    244    265      1
   272    245    266      1
   273    245    267      1
   274    268    269      1
   275    268    275      1
   276    268    278      1
   277    269    270      1
   278    269    304      1
   279    270    271      1
   280    270    305      1
   281    271    276      1
   282    271    279      1
   283    272    273      1
   284    272    276      1
   285    272    280      1
   286    273    274      1
   287    274    275      1
   288    274    277      1
   289    275    276      1
   290    275    306      1
   291    276    307      1
   292    277    285      1
   293    277    308      1
   294    278    296      1
   295    278    309      1
   296    278    310      1
   297    279    297      1
   298    279    312      1
   299    280    288      1
   300    280    313      1
   301    281    382      1
   302    281   3222      1
   303    282    283      1
   304    282    286      1
   305    282    303      1
   306    283    284      1
   307    283    314      1
   308    284    285      1
   309    284    315      1
   310    285    286      1
   311    287    288      1
   312    287    311      1
   313    288    289      1
   314    289    290      1
   315    289    316      1
   316    290    291      1
   317    290    317      1
   318    291   1679      1
   319    292    293      1
   320    292    296      1
   321    293    294      1
   322    294    295      1
   323    294    318      1
   324    295    296      1
   325    295    319      1
   326    297    298      1
   327    297    361      1
   328    298    320      1
   329    298    361      1
   330    299    300      1
   331    299    340      1
   332    299    361      1
   333    300    301      1
   334    300    302      1
   335    301   3143      1
   336    302    322      1
   337    302    323      1
   338    303    324      1
   339    303    325      1
   340    321    339      1
   341    326    327      1
   342    326    333      1
   343    326    336      1
   344    326    339      1
   345    327    328      1
   346    327    362      1
   347    328    329      1
   348    328    363      1
   349    329    334      1
   350    329    337      1
   351    330    331      1
   352    330    334      1
   353    330    338      1
   354    331    332      1
   355    332    333      1
   356    332    335      1
   357    333    334      1
   358    333    364      1
   359    334    365      1
   360    335    343      1
   361    335    366      1
   362    336    354      1
   363    336    367      1
   364    336    368      1
   365    337    355      1
   366    337    369      1
   367    337    370      1
   368    338    346      1
   369    338    371      1
   370    340    341      1
   371    340    344      1
   372    341    342      1
   373    341    372      1
   374    342    343      1
   375    342    373      1
   376    343    344      1
   377    345    346      1
   378    345    349      1
   379    346    347      1
   380    347    348      1
   381    347    374      1
   382    348    349      1
   383    348    375      1
   384    350    354      1
   385    351    352      1
   386    351   1724      1
   387    352    376      1
   388    353    354      1
   389    353    377      1
   390    355    356      1
   391    355    359      1
   392    356    378      1
   393    357    358      1
   394    357    379      1
   395    358    360      1
   396    360    380      1
   397    360    381      1
   398    383   3147      1
   399    384    385      1
   400    384    390      1
   401    384    397      1
   402    385    386      1
   403    385    403      1
   404    386    387      1
   405    386    404      1
   406    387    389      1
   407    388    391      1
   408    388    405      1
   409    388    406      1
   410    389    932      1
   411    391    392      1
   412    391    395      1
   413    392    393      1
   414    392    407      1
   415    393    394      1
   416    393    408      1
   417    394    395      1
   418    394    396      1
   419    396    409      1
   420    396    410      1
   421    397    412      1
   422    398    399      1
   423    398   1796      1
   424    400    414      1
   425    401    402      1
   426    415    416      1
   427    415    428      1
   428    416    417      1
   429    416    434      1
   430    417    418      1
   431    417    435      1
   432    418    419      1
   433    418    420      1
   434    419    422      1
   435    419    436      1
   436    419    437      1
   437    420   3626      1
   438    422    423      1
   439    422    426      1
   440    423    424      1
   441    423    438      1
   442    424    425      1
   443    424    439      1
   444    425    426      1
   445    425    427      1
   446    427    440      1
   447    427    441      1
   448    428    432      1
   449    428    442      1
   450    428    443      1
   451    429    430      1
   452    429   2773      1
   453    430    444      1
   454    431    432      1
   455    431    445      1
   456    432    433      1
   457    446    447      1
   458    446    451      1
   459    448    449      1
   460    448    457      1
   461    449    450      1
   462    449    464      1
   463    450    465      1
   464    451    458      1
   465    451    466      1
   466    452    453      1
   467    452    456      1
   468    452    457      1
   469    453    454      1
   470    454    455      1
   471    454   1700      1
   472    455    456      1
   473    455    467      1
   474    456    468      1
   475    457    469      1
   476    458    459      1
   477    458    462      1
   478    459    460      1
   479    459    470      1
   480    460    461      1
   481    460    471      1
   482    461    462      1
   483    461    463      1
   484    463    472      1
   485    474    475      1
   486    474    478      1
   487    474    479      1
   488    475    476      1
   489    476    477      1
   490    476    485      1
   491    477    478      1
   492    477    492      1
   493    478    493      1
   494    479    486      1
   495    479    494      1
   496    480    481      1
   497    480    484      1
   498    480    485      1
   499    481    482      1
   500    482    483      1
   501    483    484      1
   502    483    495      1
   503    484    496      1
   504    485    497      1
   505    486    487      1
   506    486    490      1
   507    487    488      1
   508    487    498      1
   509    488    489      1
   510    488    499      1
   511    489    490      1
   512    489    491      1
   513    491    500      1
   514    491    501      1
   515    502    503      1
   516    502    506      1
   517    502    507      1
   518    503    504      1
   519    504    505      1
   520    504    508      1
   521    505    506      1
   522    505    509      1
   523    506    510      1
   524    507    511      1
   525    508    512      1
   526    513    514      1
   527    513    517      1
   528    513    518      1
   529    514    515      1
   530    515    516      1
   531    515    519      1
   532    516    517      1
   533    516    520      1
   534    517    521      1
   535    518    522      1
   536    519    523      1
   537    519   3815      1
   538    524    525      1
   539    524    528      1
   540    524    529      1
   541    525    526      1
   542    526    527      1
   543    526    530      1
   544    527    528      1
   545    527    531      1
   546    528    532      1
   547    529    533      1
   548    529   2802      1
   549    535    536      1
   550    535    542      1
   551    535    545      1
   552    535    548      1
   553    536    537      1
   554    536    571      1
   555    537    538      1
   556    537    572      1
   557    538    543      1
   558    538    546      1
   559    538    548      1
   560    539    540      1
   561    539    543      1
   562    539    547      1
   563    540    541      1
   564    541    542      1
   565    541    544      1
   566    542    543      1
   567    542    573      1
   568    544    552      1
   569    544    575      1
   570    545    563      1
   571    545    576      1
   572    545    577      1
   573    546    564      1
   574    546    578      1
   575    546    579      1
   576    547    580      1
   577    549    550      1
   578    549    891      1
   579    550    551      1
   580    551    582      1
   581    552    553      1
   582    553   1589      1
   583    554    555      1
   584    554    558      1
   585    555    556      1
   586    556    557      1
   587    556    583      1
   588    557    558      1
   589    557    584      1
   590    558    570      1
   591    559    560      1
   592    559    563      1
   593    560    561      1
   594    560    569      1
   595    561    562      1
   596    561    585      1
   597    562    563      1
   598    562    586      1
   599    564    565      1
   600    564    568      1
   601    565    566      1
   602    565    587      1
   603    566    567      1
   604    566    588      1
   605    567    568      1
   606    567    608      1
   607    567    639      1
   608    569    589      1
   609    569    590      1
   610    570    591      1
   611    570    592      1
   612    593    594      1
   613    593    600      1
   614    593    603      1
   615    593    606      1
   616    594    595      1
   617    594    629      1
   618    595    596      1
   619    595    630      1
   620    596    601      1
   621    596    604      1
   622    596    606      1
   623    597    598      1
   624    597    601      1
   625    597    605      1
   626    598    599      1
   627    599    600      1
   628    599    602      1
   629    600    601      1
   630    600    631      1
   631    601    632      1
   632    602    610      1
   633    602    633      1
   634    603    621      1
   635    603    634      1
   636    603    635      1
   637    604    622      1
   638    604    636      1
   639    604    637      1
   640    605    613      1
   641    605    638      1
   642    607    608      1
   643    607    611      1
   644    608    609      1
   645    609    610      1
   646    609    640      1
   647    610    611      1
   648    612    613      1
   649    612    616      1
   650    613    614      1
   651    614    615      1
   652    614    641      1
   653    615    616      1
   654    615    642      1
   655    616    628      1
   656    617    618      1
   657    617    621      1
   658    618    619      1
   659    618    627      1
   660    619    620      1
   661    619    643      1
   662    620    621      1
   663    620    644      1
   664    622    623      1
   665    623    645      1
   666    624    625      1
   667    624    646      1
   668    625    865      1
   669    626   3265      1
   670    627    647      1
   671    627    648      1
   672    628    649      1
   673    628    650      1
   674    651    652      1
   675    651    658      1
   676    651    661      1
   677    651    664      1
   678    652    653      1
   679    652    687      1
   680    653    654      1
   681    653    688      1
   682    654    659      1
   683    654    662      1
   684    655    656      1
   685    655    659      1
   686    655    663      1
   687    656    657      1
   688    657    658      1
   689    658    659      1
   690    658    689      1
   691    660    668      1
   692    660    691      1
   693    661    679      1
   694    661    692      1
   695    661    693      1
   696    662    680      1
   697    662    694      1
   698    662    695      1
   699    663    671      1
   700    663    696      1
   701    664    765      1
   702    665    669      1
   703    665    686      1
   704    666    667      1
   705    666    697      1
   706    667    668      1
   707    667    698      1
   708    670   3875      1
   709    671    672      1
   710    672    673      1
   711    672    699      1
   712    673    700      1
   713    674   2062      1
   714    675    679      1
   715    676    677      1
   716    676   1580      1
   717    677    678      1
   718    677    701      1
   719    678    679      1
   720    678    702      1
   721    680    681      1
   722    680    744      1
   723    681    703      1
   724    681    744      1
   725    682    683      1
   726    682    723      1
   727    682    744      1
   728    683    684      1
   729    683    685      1
   730    684    766      1
   731    685    705      1
   732    685    706      1
   733    686    707      1
   734    686    708      1
   735    704    713      1
   736    709    710      1
   737    709    716      1
   738    709    719      1
   739    709    722      1
   740    710    711      1
   741    710    745      1
   742    711    712      1
   743    711    746      1
   744    712    717      1
   745    712    720      1
   746    713    714      1
   747    715    716      1
   748    715    718      1
   749    716    717      1
   750    716    747      1
   751    718    726      1
   752    718    749      1
   753    719    737      1
   754    719    750      1
   755    719    751      1
   756    720    738      1
   757    720    752      1
   758    721    729      1
   759    721    754      1
   760    723    724      1
   761    723    727      1
   762    724    725      1
   763    724    755      1
   764    725    726      1
   765    725    756      1
   766    726    727      1
   767    728    732      1
   768    729    730      1
   769    730    731      1
   770    730    757      1
   771    731    758      1
   772    733    734      1
   773    733    737      1
   774    734    735      1
   775    735    736      1
   776    735    759      1
   777    736    737      1
   778    736    760      1
   779    738    739      1
   780    739    761      1
   781    740    741      1
   782    740    762      1
   783    741    742      1
   784    741    743      1
   785    743    763      1
   786    743    764      1
   787    767    768      1
   788    767    773      1
   789    767    780      1
   790    768    769      1
   791    768    786      1
   792    769    770      1
   793    769    787      1
   794    770    771      1
   795    770    772      1
   796    771    774      1
   797    771    788      1
   798    771    789      1
   799    772   2092      1
   800    774    775      1
   801    774    778      1
   802    775    776      1
   803    775    790      1
   804    776    777      1
   805    776    791      1
   806    777    778      1
   807    777    779      1
   808    779    792      1
   809    779    793      1
   810    780    784      1
   811    780    794      1
   812    780    795      1
   813    781    782      1
   814    781    785      1
   815    782    783      1
   816    782    796      1
   817    783    784      1
   818    783    797      1
   819    784    785      1
   820    798    799      1
   821    798    804      1
   822    798    811      1
   823    799    800      1
   824    799    817      1
   825    800    801      1
   826    800    818      1
   827    801    802      1
   828    801    803      1
   829    802    805      1
   830    802    819      1
   831    802    820      1
   832    803   2408      1
   833    805    806      1
   834    805    809      1
   835    807    822      1
   836    808    809      1
   837    808    810      1
   838    810    824      1
   839    811    815      1
   840    811    825      1
   841    811    826      1
   842    812    813      1
   843    813    814      1
   844    813    827      1
   845    814    815      1
   846    814    828      1
   847    815    816      1
   848    816   2434      1
   849    829    830      1
   850    829    833      1
   851    829    834      1
   852    830    831      1
   853    831    832      1
   854    831    840      1
   855    832    833      1
   856    832    847      1
   857    833    848      1
   858    834    841      1
   859    834    849      1
   860    835    836      1
   861    835    839      1
   862    835    840      1
   863    836   1117      1
   864    837    838      1
   865    837   1549      1
   866    838    839      1
   867    838    850      1
   868    839    851      1
   869    840    852      1
   870    841    842      1
   871    841    845      1
   872    842    843      1
   873    842    853      1
   874    843    844      1
   875    843    854      1
   876    844    845      1
   877    844    846      1
   878    846    855      1
   879    846    856      1
   880    857    858      1
   881    857    861      1
   882    857    862      1
   883    858    859      1
   884    859    860      1
   885    859    868      1
   886    860    861      1
   887    860    875      1
   888    861    876      1
   889    862    869      1
   890    862    877      1
   891    863    864      1
   892    863    867      1
   893    863    868      1
   894    864    865      1
   895    865    866      1
   896    866    867      1
   897    866    878      1
   898    867    879      1
   899    868    880      1
   900    869    870      1
   901    869    873      1
   902    870    871      1
   903    871    872      1
   904    871    882      1
   905    872    873      1
   906    872    874      1
   907    874    883      1
   908    874    884      1
   909    885    886      1
   910    885    889      1
   911    885    890      1
   912    886    887      1
   913    887    888      1
   914    887    891      1
   915    888    889      1
   916    888    892      1
   917    889    893      1
   918    890    894      1
   919    891    895      1
   920    896    897      1
   921    896    900      1
   922    896    901      1
   923    897   2168      1
   924    898    899      1
   925    898    902      1
   926    899    900      1
   927    899    903      1
   928    900    904      1
   929    901    905      1
   930    902    906      1
   931    907    908      1
   932    907    911      1
   933    907    912      1
   934    908    909      1
   935    909    910      1
   936    909    913      1
   937    910    911      1
   938    912    916      1
   939    913    917      1
   940    913   4187      1
   941    918    919      1
   942    918    925      1
   943    918    928      1
   944    919    920      1
   945    919    954      1
   946    920    921      1
   947    920    955      1
   948    921    926      1
   949    922    923      1
   950    922    930      1
   951    924    925      1
   952    924    927      1
   953    925    926      1
   954    925    956      1
   955    926    957      1
   956    927    935      1
   957    927    958      1
   958    928    946      1
   959    928    959      1
   960    928    960      1
   961    929    947      1
   962    929    961      1
   963    929    962      1
   964    930    938      1
   965    930    963      1
   966    932    933      1
   967    932    936      1
   968    933    934      1
   969    933    964      1
   970    934    935      1
   971    934    965      1
   972    935    936      1
   973    937    938      1
   974    937    941      1
   975    938    939      1
   976    939    940      1
   977    939    966      1
   978    940    941      1
   979    940    967      1
   980    941    953      1
   981    942    943      1
   982    942    946      1
   983    943    944      1
   984    943    952      1
   985    944    945      1
   986    944    968      1
   987    945    946      1
   988    945    969      1
   989    947    948      1
   990    947    951      1
   991    949    971      1
   992    950    951      1
   993    950   1022      1
   994    952    972      1
   995    952    973      1
   996    953    974      1
   997    953    975      1
   998    976    977      1
   999    976    983      1
  1000    976    986      1
  1001    976    989      1
  1002    977    978      1
  1003    977   1012      1
  1004    978    979      1
  1005    978   1013      1
  1006    979    984      1
  1007    979    987      1
  1008    979    989      1
  1009    980    981      1
  1010    980    984      1
  1011    980    988      1
  1012    981    982      1
  1013    982    983      1
  1014    982    985      1
  1015    983    984      1
  1016    983   1014      1
  1017    984   1015      1
  1018    985    993      1
  1019    985   1016      1
  1020    986   1004      1
  1021    986   1017      1
  1022    986   1018      1
  1023    987   1005      1
  1024    987   1019      1
  1025    987   1020      1
  1026    988    996      1
  1027    988   1021      1
  1028    990    991      1
  1029    990    994      1
  1030    991    992      1
  1031    992    993      1
  1032    992   1023      1
  1033    993    994      1
  1034    995    996      1
  1035    995   1720      1
  1036    996    997      1
  1037    997    998      1
  1038    997   1024      1
  1039    998    999      1
  1040    998   1025      1
  1041    999   1011      1
  1042   1000   1001      1
  1043   1000   1004      1
  1044   1001   1002      1
  1045   1001   1010      1
  1046   1002   1003      1
  1047   1002   1026      1
  1048   1003   1004      1
  1049   1003   1027      1
  1050   1005   1006      1
  1051   1005   1009      1
  1052   1006   1007      1
  1053   1006   1028      1
  1054   1007   1008      1
  1055   1007   1029      1
  1056   1008   3539      1
  1057   1009   4414      1
  1058   1010   1030      1
  1059   1010   1031      1
  1060   1011   1032      1
  1061   1011   1033      1
  1062   1034   1035      1
  1063   1034   1041      1
  1064   1034   1044      1
  1065   1034   1047      1
  1066   1035   1036      1
  1067   1035   1070      1
  1068   1036   1037      1
  1069   1036   1071      1
  1070   1037   1042      1
  1071   1037   1045      1
  1072   1038   1039      1
  1073   1038   1042      1
  1074   1038   1046      1
  1075   1039   1040      1
  1076   1040   1041      1
  1077   1040   1043      1
  1078   1041   1042      1
  1079   1041   1072      1
  1080   1042   1073      1
  1081   1043   1051      1
  1082   1043   1074      1
  1083   1044   1062      1
  1084   1044   1075      1
  1085   1045   1063      1
  1086   1045   1078      1
  1087   1046   1054      1
  1088   1046   1079      1
  1089   1047   1148      1
  1090   1048   1049      1
  1091   1048   1052      1
  1092   1048   1069      1
  1093   1050   1051      1
  1094   1053   1054      1
  1095   1053   1077      1
  1096   1054   1055      1
  1097   1055   1056      1
  1098   1055   1082      1
  1099   1056   1057      1
  1100   1056   1083      1
  1101   1057   2445      1
  1102   1058   3660      1
  1103   1059   1060      1
  1104   1060   1084      1
  1105   1061   1062      1
  1106   1061   1085      1
  1107   1063   1064      1
  1108   1063   1127      1
  1109   1064   1086      1
  1110   1064   1127      1
  1111   1065   1066      1
  1112   1065   1106      1
  1113   1065   1127      1
  1114   1066   1067      1
  1115   1066   1068      1
  1116   1067   1149      1
  1117   1068   1088      1
  1118   1068   1089      1
  1119   1069   1090      1
  1120   1069   1091      1
  1121   1087   1105      1
  1122   1092   1093      1
  1123   1092   1099      1
  1124   1092   1102      1
  1125   1092   1105      1
  1126   1093   1094      1
  1127   1093   1128      1
  1128   1094   1095      1
  1129   1094   1129      1
  1130   1095   1100      1
  1131   1095   1103      1
  1132   1096   1097      1
  1133   1096   1100      1
  1134   1096   1104      1
  1135   1097   1098      1
  1136   1098   1099      1
  1137   1098   1101      1
  1138   1099   1100      1
  1139   1099   1130      1
  1140   1100   1131      1
  1141   1101   1109      1
  1142   1101   1132      1
  1143   1102   1120      1
  1144   1102   1133      1
  1145   1102   1134      1
  1146   1103   1121      1
  1147   1103   1136      1
  1148   1104   1112      1
  1149   1104   1137      1
  1150   1106   1107      1
  1151   1106   1110      1
  1152   1107   1108      1
  1153   1107   1138      1
  1154   1108   1109      1
  1155   1108   1139      1
  1156   1109   1110      1
  1157   1111   1112      1
  1158   1111   1135      1
  1159   1112   1113      1
  1160   1113   1114      1
  1161   1113   1140      1
  1162   1114   1141      1
  1163   1115   3637      1
  1164   1116   1120      1
  1165   1117   1118      1
  1166   1118   1119      1
  1167   1118   1142      1
  1168   1119   1120      1
  1169   1119   1143      1
  1170   1121   1122      1
  1171   1121   1125      1
  1172   1122   1123      1
  1173   1122   1144      1
  1174   1123   1124      1
  1175   1123   1145      1
  1176   1124   1125      1
  1177   1126   1146      1
  1178   1126   1147      1
  1179   1150   1151      1
  1180   1150   1156      1
  1181   1150   1163      1
  1182   1151   1152      1
  1183   1151   1169      1
  1184   1152   1153      1
  1185   1152   1170      1
  1186   1153   1154      1
  1187   1153   1155      1
  1188   1154   1157      1
  1189   1154   1171      1
  1190   1154   1172      1
  1191   1157   1158      1
  1192   1157   1161      1
  1193   1158   1159      1
  1194   1158   1173      1
  1195   1159   1160      1
  1196   1159   1174      1
  1197   1160   1161      1
  1198   1160   1162      1
  1199   1162   1175      1
  1200   1162   1176      1
  1201   1163   1167      1
  1202   1163   1177      1
  1203   1163   1178      1
  1204   1164   1165      1
  1205   1164   2715      1
  1206   1165   1166      1
  1207   1165   1179      1
  1208   1166   1167      1
  1209   1166   1180      1
  1210   1167   1168      1
  1211   1168   1274      1
  1212   1181   1182      1
  1213   1181   1187      1
  1214   1181   1194      1
  1215   1182   1183      1
  1216   1182   1200      1
  1217   1183   1184      1
  1218   1183   1201      1
  1219   1184   1185      1
  1220   1184   1186      1
  1221   1185   1188      1
  1222   1185   1202      1
  1223   1185   1203      1
  1224   1188   1189      1
  1225   1188   1192      1
  1226   1189   1190      1
  1227   1189   1204      1
  1228   1190   1191      1
  1229   1190   1205      1
  1230   1191   1192      1
  1231   1191   1193      1
  1232   1193   1206      1
  1233   1193   1207      1
  1234   1194   1198      1
  1235   1194   1208      1
  1236   1194   1209      1
  1237   1195   1196      1
  1238   1196   1197      1
  1239   1196   1210      1
  1240   1197   1198      1
  1241   1197   1211      1
  1242   1198   1199      1
  1243   1212   1213      1
  1244   1212   1216      1
  1245   1212   1217      1
  1246   1213   1214      1
  1247   1214   1215      1
  1248   1214   1223      1
  1249   1215   1216      1
  1250   1215   1230      1
  1251   1216   1231      1
  1252   1217   1224      1
  1253   1217   1232      1
  1254   1218   1219      1
  1255   1218   1223      1
  1256   1220   1221      1
  1257   1221   1222      1
  1258   1221   1233      1
  1259   1223   1235      1
  1260   1224   1225      1
  1261   1224   1228      1
  1262   1225   1226      1
  1263   1225   1236      1
  1264   1226   1227      1
  1265   1226   1237      1
  1266   1227   1228      1
  1267   1227   1229      1
  1268   1229   1238      1
  1269   1229   1239      1
  1270   1240   1241      1
  1271   1240   1244      1
  1272   1240   1245      1
  1273   1242   1251      1
  1274   1243   1244      1
  1275   1244   1259      1
  1276   1245   1252      1
  1277   1245   1260      1
  1278   1246   1247      1
  1279   1246   1250      1
  1280   1246   1251      1
  1281   1248   1249      1
  1282   1248   1701      1
  1283   1249   1250      1
  1284   1249   1261      1
  1285   1250   1262      1
  1286   1251   1263      1
  1287   1252   1253      1
  1288   1252   1256      1
  1289   1253   1254      1
  1290   1253   1264      1
  1291   1254   1255      1
  1292   1254   1265      1
  1293   1255   1256      1
  1294   1255   1257      1
  1295   1257   1266      1
  1296   1257   1267      1
  1297   1268   1269      1
  1298   1268   1272      1
  1299   1268   1273      1
  1300   1269   1270      1
  1301   1270   1271      1
  1302   1270   1274      1
  1303   1271   1272      1
  1304   1271   1275      1
  1305   1272   1276      1
  1306   1273   1277      1
  1307   1274   1278      1
  1308   1279   1280      1
  1309   1279   1283      1
  1310   1279   1284      1
  1311   1280   1281      1
  1312   1281   1282      1
  1313   1281   1285      1
  1314   1282   1283      1
  1315   1282   1286      1
  1316   1283   1287      1
  1317   1284   1288      1
  1318   1285   1289      1
  1319   1285   4559      1
  1320   1290   1294      1
  1321   1290   1295      1
  1322   1291   1292      1
  1323   1291   4294      1
  1324   1292   1293      1
  1325   1292   1296      1
  1326   1293   1294      1
  1327   1293   1297      1
  1328   1294   1298      1
  1329   1295   1299      1
  1330   1296   1300      1
  1331   1301   1302      1
  1332   1301   1305      1
  1333   1301   1306      1
  1334   1302   2219      1
  1335   1303   1304      1
  1336   1303   1307      1
  1337   1304   1305      1
  1338   1304   1308      1
  1339   1305   1309      1
  1340   1306   1310      1
  1341   1307   1311      1
  1342   1312   1313      1
  1343   1312   1319      1
  1344   1312   1322      1
  1345   1312   1325      1
  1346   1313   1314      1
  1347   1313   1348      1
  1348   1314   1315      1
  1349   1314   1349      1
  1350   1315   1320      1
  1351   1315   1323      1
  1352   1315   1325      1
  1353   1316   1317      1
  1354   1316   1320      1
  1355   1316   1324      1
  1356   1317   1318      1
  1357   1318   1319      1
  1358   1318   1321      1
  1359   1319   1320      1
  1360   1319   1350      1
  1361   1320   1351      1
  1362   1321   1329      1
  1363   1321   1352      1
  1364   1322   1340      1
  1365   1322   1353      1
  1366   1322   1354      1
  1367   1323   1341      1
  1368   1323   1355      1
  1369   1323   1356      1
  1370   1324   1332      1
  1371   1324   1357      1
  1372   1326   1327      1
  1373   1326   1330      1
  1374   1327   1328      1
  1375   1327   1358      1
  1376   1328   1329      1
  1377   1328   1359      1
  1378   1329   1330      1
  1379   1331   1332      1
  1380   1331   1335      1
  1381   1332   1333      1
  1382   1333   1334      1
  1383   1333   1360      1
  1384   1334   1335      1
  1385   1334   1361      1
  1386   1335   1347      1
  1387   1336   1337      1
  1388   1336   1340      1
  1389   1337   1338      1
  1390   1337   1346      1
  1391   1338   1339      1
  1392   1338   1362      1
  1393   1339   1340      1
  1394   1339   1363      1
  1395   1341   1342      1
  1396   1341   1345      1
  1397   1342   1343      1
  1398   1342   1364      1
  1399   1343   1344      1
  1400   1343   1365      1
  1401   1344   1345      1
  1402   1344   1385      1
  1403   1344   1416      1
  1404   1346   1366      1
  1405   1346   1367      1
  1406   1347   1368      1
  1407   1347   1369      1
  1408   1370   1371      1
  1409   1370   1377      1
  1410   1370   1380      1
  1411   1370   1383      1
  1412   1371   1372      1
  1413   1371   1406      1
  1414   1372   1373      1
  1415   1372   1407      1
  1416   1373   1378      1
  1417   1373   1381      1
  1418   1373   1383      1
  1419   1374   1375      1
  1420   1374   1378      1
  1421   1374   1382      1
  1422   1375   1376      1
  1423   1376   1377      1
  1424   1376   1379      1
  1425   1377   1378      1
  1426   1377   1408      1
  1427   1378   1409      1
  1428   1379   1387      1
  1429   1379   1410      1
  1430   1380   1398      1
  1431   1380   1411      1
  1432   1380   1412      1
  1433   1381   1399      1
  1434   1381   1413      1
  1435   1381   1414      1
  1436   1382   1390      1
  1437   1382   1415      1
  1438   1384   1385      1
  1439   1384   1388      1
  1440   1385   1386      1
  1441   1386   1387      1
  1442   1386   1417      1
  1443   1387   1388      1
  1444   1389   1390      1
  1445   1389   1393      1
  1446   1390   1391      1
  1447   1391   1392      1
  1448   1391   1418      1
  1449   1392   1393      1
  1450   1392   1419      1
  1451   1393   1405      1
  1452   1394   1395      1
  1453   1394   1398      1
  1454   1395   1396      1
  1455   1395   1404      1
  1456   1396   1397      1
  1457   1396   1420      1
  1458   1397   1398      1
  1459   1397   1421      1
  1460   1399   1400      1
  1461   1399   1403      1
  1462   1400   1401      1
  1463   1400   1422      1
  1464   1401   1402      1
  1465   1401   1423      1
  1466   1402   3228      1
  1467   1404   1424      1
  1468   1404   1425      1
  1469   1405   1426      1
  1470   1405   1427      1
  1471   1428   1429      1
  1472   1428   1435      1
  1473   1428   1438      1
  1474   1429   1430      1
  1475   1429   1464      1
  1476   1430   1431      1
  1477   1430   1465      1
  1478   1431   1436      1
  1479   1431   1439      1
  1480   1432   1433      1
  1481   1432   1436      1
  1482   1432   1440      1
  1483   1433   1434      1
  1484   1434   1435      1
  1485   1434   1437      1
  1486   1435   1436      1
  1487   1435   1466      1
  1488   1436   1467      1
  1489   1437   1445      1
  1490   1437   1468      1
  1491   1438   1456      1
  1492   1438   1469      1
  1493   1438   1470      1
  1494   1439   1457      1
  1495   1439   1472      1
  1496   1440   1448      1
  1497   1440   1473      1
  1498   1441   1542      1
  1499   1441   4138      1
  1500   1442   1443      1
  1501   1442   1446      1
  1502   1442   1463      1
  1503   1443   1444      1
  1504   1443   1474      1
  1505   1444   1445      1
  1506   1444   1475      1
  1507   1445   1446      1
  1508   1447   1448      1
  1509   1447   1471      1
  1510   1448   1449      1
  1511   1449   1450      1
  1512   1449   1476      1
  1513   1450   1451      1
  1514   1450   1477      1
  1515   1451   2839      1
  1516   1452   1456      1
  1517   1452   4561      1
  1518   1453   4560      1
  1519   1454   1455      1
  1520   1454   1478      1
  1521   1455   1456      1
  1522   1455   1479      1
  1523   1457   1458      1
  1524   1457   1521      1
  1525   1458   1480      1
  1526   1458   1521      1
  1527   1459   1460      1
  1528   1459   1500      1
  1529   1459   1521      1
  1530   1460   1462      1
  1531   1461   1543      1
  1532   1462   1482      1
  1533   1463   1484      1
  1534   1463   1485      1
  1535   1481   1499      1
  1536   1486   1487      1
  1537   1486   1493      1
  1538   1486   1496      1
  1539   1486   1499      1
  1540   1487   1488      1
  1541   1487   1522      1
  1542   1488   1489      1
  1543   1488   1523      1
  1544   1489   1494      1
  1545   1489   1497      1
  1546   1490   1491      1
  1547   1490   1494      1
  1548   1490   1498      1
  1549   1491   1492      1
  1550   1492   1493      1
  1551   1492   1495      1
  1552   1493   1494      1
  1553   1493   1524      1
  1554   1494   1525      1
  1555   1495   1503      1
  1556   1495   1526      1
  1557   1496   1514      1
  1558   1496   1527      1
  1559   1496   1528      1
  1560   1497   1515      1
  1561   1497   1529      1
  1562   1497   1530      1
  1563   1498   1506      1
  1564   1498   1531      1
  1565   1500   1501      1
  1566   1500   1504      1
  1567   1501   1502      1
  1568   1502   1503      1
  1569   1503   1504      1
  1570   1505   1506      1
  1571   1506   1507      1
  1572   1507   1508      1
  1573   1507   1534      1
  1574   1508   1509      1
  1575   1508   1535      1
  1576   1509   2466      1
  1577   1510   1514      1
  1578   1511   1512      1
  1579   1512   1513      1
  1580   1512   1536      1
  1581   1513   1514      1
  1582   1513   1537      1
  1583   1515   1516      1
  1584   1515   1519      1
  1585   1516   1517      1
  1586   1516   1538      1
  1587   1517   1518      1
  1588   1517   1539      1
  1589   1518   1519      1
  1590   1518   1520      1
  1591   1520   1540      1
  1592   1520   1541      1
  1593   1544   1545      1
  1594   1544   1550      1
  1595   1544   1557      1
  1596   1545   1546      1
  1597   1545   1563      1
  1598   1546   1547      1
  1599   1546   1564      1
  1600   1547   1548      1
  1601   1547   1549      1
  1602   1548   1551      1
  1603   1548   1565      1
  1604   1548   1566      1
  1605   1551   1552      1
  1606   1551   1555      1
  1607   1552   1553      1
  1608   1552   1567      1
  1609   1553   1554      1
  1610   1553   1568      1
  1611   1554   1555      1
  1612   1554   1556      1
  1613   1556   1569      1
  1614   1556   1570      1
  1615   1557   1561      1
  1616   1557   1571      1
  1617   1557   1572      1
  1618   1558   1559      1
  1619   1559   1560      1
  1620   1559   1573      1
  1621   1560   1561      1
  1622   1560   1574      1
  1623   1561   1562      1
  1624   1575   1576      1
  1625   1575   1581      1
  1626   1575   1588      1
  1627   1576   1577      1
  1628   1576   1594      1
  1629   1577   1578      1
  1630   1577   1595      1
  1631   1578   1579      1
  1632   1578   1580      1
  1633   1579   1582      1
  1634   1579   1596      1
  1635   1579   1597      1
  1636   1582   1583      1
  1637   1582   1586      1
  1638   1583   1584      1
  1639   1583   1598      1
  1640   1584   1585      1
  1641   1584   1599      1
  1642   1585   1586      1
  1643   1585   1587      1
  1644   1587   1600      1
  1645   1587   1601      1
  1646   1588   1592      1
  1647   1588   1602      1
  1648   1588   1603      1
  1649   1589   1590      1
  1650   1590   1591      1
  1651   1590   1604      1
  1652   1591   1592      1
  1653   1591   1605      1
  1654   1592   1593      1
  1655   1593   1690      1
  1656   1606   1607      1
  1657   1606   1610      1
  1658   1606   1611      1
  1659   1607   1608      1
  1660   1608   1609      1
  1661   1608   1617      1
  1662   1609   1610      1
  1663   1609   1624      1
  1664   1610   1625      1
  1665   1611   1618      1
  1666   1611   1626      1
  1667   1612   1613      1
  1668   1612   1616      1
  1669   1612   1617      1
  1670   1613   1614      1
  1671   1614   1615      1
  1672   1615   1616      1
  1673   1615   1627      1
  1674   1616   1628      1
  1675   1617   1629      1
  1676   1618   1619      1
  1677   1618   1622      1
  1678   1619   1620      1
  1679   1619   1630      1
  1680   1620   1621      1
  1681   1620   1631      1
  1682   1621   1622      1
  1683   1621   1623      1
  1684   1623   1632      1
  1685   1623   1633      1
  1686   1634   1635      1
  1687   1634   1638      1
  1688   1634   1639      1
  1689   1635   1636      1
  1690   1636   1637      1
  1691   1636   1645      1
  1692   1637   1638      1
  1693   1637   1652      1
  1694   1638   1653      1
  1695   1639   1646      1
  1696   1639   1654      1
  1697   1640   1641      1
  1698   1640   1644      1
  1699   1641   1642      1
  1700   1642   1643      1
  1701   1643   1644      1
  1702   1643   1655      1
  1703   1644   1656      1
  1704   1645   1657      1
  1705   1646   1647      1
  1706   1646   1650      1
  1707   1647   1648      1
  1708   1647   1658      1
  1709   1648   1649      1
  1710   1648   1659      1
  1711   1649   1650      1
  1712   1649   1651      1
  1713   1651   1660      1
  1714   1651   1661      1
  1715   1662   1663      1
  1716   1662   1666      1
  1717   1662   1667      1
  1718   1663   1664      1
  1719   1664   1665      1
  1720   1664   1668      1
  1721   1665   1666      1
  1722   1665   1669      1
  1723   1666   1670      1
  1724   1667   1671      1
  1725   1667   3053      1
  1726   1668   1672      1
  1727   1673   1674      1
  1728   1673   1677      1
  1729   1673   1678      1
  1730   1674   1675      1
  1731   1675   1676      1
  1732   1675   1679      1
  1733   1676   1677      1
  1734   1676   1680      1
  1735   1677   1681      1
  1736   1678   1682      1
  1737   1679   1683      1
  1738   1684   1685      1
  1739   1684   1688      1
  1740   1684   1689      1
  1741   1685   1686      1
  1742   1686   1687      1
  1743   1686   1690      1
  1744   1687   1688      1
  1745   1687   1691      1
  1746   1688   1692      1
  1747   1689   1693      1
  1748   1690   1694      1
  1749   1695   1696      1
  1750   1695   1699      1
  1751   1695   1700      1
  1752   1696   1697      1
  1753   1697   1698      1
  1754   1697   1701      1
  1755   1698   1699      1
  1756   1698   1702      1
  1757   1699   1703      1
  1758   1700   1704      1
  1759   1701   1705      1
  1760   1706   1713      1
  1761   1706   1719      1
  1762   1707   1708      1
  1763   1707   1742      1
  1764   1708   1743      1
  1765   1709   1714      1
  1766   1709   1717      1
  1767   1709   1719      1
  1768   1710   1711      1
  1769   1710   1714      1
  1770   1710   1718      1
  1771   1711   1712      1
  1772   1712   1713      1
  1773   1712   1715      1
  1774   1713   1714      1
  1775   1713   1744      1
  1776   1714   1745      1
  1777   1715   1723      1
  1778   1715   1746      1
  1779   1716   1734      1
  1780   1716   1748      1
  1781   1717   1735      1
  1782   1717   1749      1
  1783   1717   1750      1
  1784   1718   1726      1
  1785   1718   1751      1
  1786   1720   1721      1
  1787   1721   1752      1
  1788   1722   1723      1
  1789   1722   1753      1
  1790   1725   1726      1
  1791   1725   1729      1
  1792   1726   1727      1
  1793   1727   1728      1
  1794   1727   1754      1
  1795   1728   1729      1
  1796   1728   1755      1
  1797   1729   1741      1
  1798   1730   1731      1
  1799   1730   1734      1
  1800   1731   1732      1
  1801   1731   1740      1
  1802   1732   1733      1
  1803   1732   1756      1
  1804   1733   1734      1
  1805   1733   1757      1
  1806   1735   1736      1
  1807   1735   1739      1
  1808   1736   1758      1
  1809   1737   1738      1
  1810   1737   1759      1
  1811   1738   1779      1
  1812   1738   1810      1
  1813   1740   1760      1
  1814   1740   1761      1
  1815   1741   1762      1
  1816   1741   1763      1
  1817   1764   1765      1
  1818   1764   1771      1
  1819   1764   1774      1
  1820   1764   1777      1
  1821   1765   1766      1
  1822   1765   1800      1
  1823   1766   1767      1
  1824   1766   1801      1
  1825   1767   1772      1
  1826   1767   1775      1
  1827   1767   1777      1
  1828   1768   1769      1
  1829   1768   1772      1
  1830   1768   1776      1
  1831   1769   1770      1
  1832   1770   1771      1
  1833   1770   1773      1
  1834   1771   1772      1
  1835   1771   1802      1
  1836   1772   1803      1
  1837   1773   1781      1
  1838   1773   1804      1
  1839   1774   1792      1
  1840   1774   1805      1
  1841   1774   1806      1
  1842   1775   1793      1
  1843   1775   1807      1
  1844   1775   1808      1
  1845   1776   1784      1
  1846   1776   1809      1
  1847   1778   1779      1
  1848   1779   1780      1
  1849   1780   1781      1
  1850   1780   1811      1
  1851   1781   1782      1
  1852   1782   2718      1
  1853   1783   1784      1
  1854   1783   1787      1
  1855   1784   1785      1
  1856   1785   1786      1
  1857   1785   1812      1
  1858   1786   1787      1
  1859   1786   1813      1
  1860   1787   1799      1
  1861   1788   1789      1
  1862   1788   1792      1
  1863   1789   1790      1
  1864   1789   1798      1
  1865   1790   1791      1
  1866   1790   1814      1
  1867   1791   1792      1
  1868   1791   1815      1
  1869   1793   1794      1
  1870   1793   1797      1
  1871   1794   1795      1
  1872   1794   1816      1
  1873   1795   1796      1
  1874   1795   1817      1
  1875   1797   2849      1
  1876   1798   1818      1
  1877   1798   1819      1
  1878   1799   1820      1
  1879   1799   1821      1
  1880   1822   1823      1
  1881   1822   1829      1
  1882   1822   1832      1
  1883   1822   1835      1
  1884   1823   1824      1
  1885   1823   1858      1
  1886   1824   1825      1
  1887   1824   1859      1
  1888   1825   1830      1
  1889   1825   1833      1
  1890   1826   1827      1
  1891   1826   1830      1
  1892   1826   1834      1
  1893   1827   1828      1
  1894   1828   1829      1
  1895   1828   1831      1
  1896   1829   1830      1
  1897   1829   1860      1
  1898   1830   1861      1
  1899   1831   1839      1
  1900   1831   1862      1
  1901   1832   1850      1
  1902   1832   1863      1
  1903   1832   1864      1
  1904   1833   1851      1
  1905   1833   1866      1
  1906   1834   1842      1
  1907   1834   1867      1
  1908   1835   1936      1
  1909   1836   1837      1
  1910   1836   1840      1
  1911   1837   1838      1
  1912   1837   1868      1
  1913   1838   1839      1
  1914   1838   1869      1
  1915   1839   1840      1
  1916   1841   1842      1
  1917   1841   1865      1
  1918   1842   1843      1
  1919   1843   1844      1
  1920   1843   1870      1
  1921   1844   1845      1
  1922   1844   1871      1
  1923   1845   3244      1
  1924   1846   1850      1
  1925   1847   1848      1
  1926   1847   2316      1
  1927   1848   1849      1
  1928   1848   1872      1
  1929   1849   1850      1
  1930   1849   1873      1
  1931   1851   1852      1
  1932   1851   1915      1
  1933   1852   1874      1
  1934   1852   1915      1
  1935   1853   1854      1
  1936   1853   1894      1
  1937   1853   1915      1
  1938   1854   1855      1
  1939   1854   1856      1
  1940   1855   1937      1
  1941   1856   1876      1
  1942   1856   1877      1
  1943   1857   1878      1
  1944   1857   1879      1
  1945   1875   1893      1
  1946   1880   1887      1
  1947   1880   1890      1
  1948   1880   1893      1
  1949   1881   1882      1
  1950   1881   1916      1
  1951   1882   1883      1
  1952   1882   1917      1
  1953   1883   1891      1
  1954   1884   1885      1
  1955   1884   1888      1
  1956   1884   1892      1
  1957   1885   1886      1
  1958   1886   1887      1
  1959   1886   1889      1
  1960   1887   1888      1
  1961   1887   1918      1
  1962   1888   1919      1
  1963   1889   1897      1
  1964   1889   1920      1
  1965   1890   1908      1
  1966   1890   1921      1
  1967   1890   1922      1
  1968   1891   1909      1
  1969   1891   1923      1
  1970   1891   1924      1
  1971   1892   1900      1
  1972   1892   1925      1
  1973   1894   1895      1
  1974   1894   1898      1
  1975   1895   1896      1
  1976   1895   1926      1
  1977   1896   1897      1
  1978   1896   1927      1
  1979   1897   1898      1
  1980   1899   1903      1
  1981   1900   1901      1
  1982   1901   1928      1
  1983   1902   1903      1
  1984   1902   1929      1
  1985   1905   1906      1
  1986   1906   1930      1
  1987   1907   1908      1
  1988   1907   1931      1
  1989   1909   1910      1
  1990   1909   1913      1
  1991   1910   1911      1
  1992   1910   1932      1
  1993   1911   1912      1
  1994   1911   1933      1
  1995   1912   1913      1
  1996   1912   1914      1
  1997   1914   1934      1
  1998   1914   1935      1
  1999   1938   1939      1
  2000   1938   1944      1
  2001   1938   1951      1
  2002   1939   1940      1
  2003   1939   1957      1
  2004   1940   1941      1
  2005   1940   1958      1
  2006   1941   1943      1
  2007   1942   1945      1
  2008   1942   1959      1
  2009   1942   1960      1
  2010   1945   1946      1
  2011   1945   1949      1
  2012   1946   1947      1
  2013   1947   1948      1
  2014   1947   1962      1
  2015   1948   1949      1
  2016   1948   1950      1
  2017   1950   1963      1
  2018   1950   1964      1
  2019   1951   1955      1
  2020   1951   1965      1
  2021   1951   1966      1
  2022   1952   1953      1
  2023   1952   4285      1
  2024   1953   1954      1
  2025   1953   1967      1
  2026   1954   1955      1
  2027   1954   1968      1
  2028   1955   1956      1
  2029   1969   1970      1
  2030   1969   1975      1
  2031   1969   1982      1
  2032   1970   1971      1
  2033   1970   1988      1
  2034   1971   1972      1
  2035   1971   1989      1
  2036   1972   1973      1
  2037   1972   1974      1
  2038   1973   1990      1
  2039   1973   1991      1
  2040   1976   1977      1
  2041   1976   1980      1
  2042   1977   1978      1
  2043   1977   1992      1
  2044   1978   1979      1
  2045   1978   1993      1
  2046   1979   1980      1
  2047   1979   1981      1
  2048   1981   1994      1
  2049   1981   1995      1
  2050   1982   1986      1
  2051   1982   1996      1
  2052   1982   1997      1
  2053   1983   2068      1
  2054   1984   1985      1
  2055   1984   1998      1
  2056   1985   1986      1
  2057   1985   1999      1
  2058   2000   2001      1
  2059   2000   2004      1
  2060   2000   2005      1
  2061   2001   2002      1
  2062   2002   2003      1
  2063   2002   2011      1
  2064   2003   2004      1
  2065   2003   2018      1
  2066   2004   2019      1
  2067   2005   2012      1
  2068   2005   2020      1
  2069   2006   2007      1
  2070   2006   2010      1
  2071   2006   2011      1
  2072   2007   2008      1
  2073   2008   2009      1
  2074   2009   2010      1
  2075   2009   2021      1
  2076   2010   2022      1
  2077   2011   2023      1
  2078   2012   2013      1
  2079   2012   2016      1
  2080   2013   2014      1
  2081   2013   2024      1
  2082   2014   2015      1
  2083   2014   2025      1
  2084   2015   2016      1
  2085   2015   2017      1
  2086   2017   2026      1
  2087   2028   2029      1
  2088   2028   2032      1
  2089   2028   2033      1
  2090   2029   2030      1
  2091   2030   2031      1
  2092   2030   2039      1
  2093   2031   2032      1
  2094   2031   2046      1
  2095   2032   2047      1
  2096   2033   2040      1
  2097   2033   2048      1
  2098   2034   2035      1
  2099   2034   2038      1
  2100   2034   2039      1
  2101   2035   2309      1
  2102   2036   2037      1
  2103   2036   2722      1
  2104   2037   2038      1
  2105   2037   2049      1
  2106   2038   2050      1
  2107   2039   2051      1
  2108   2040   2041      1
  2109   2040   2044      1
  2110   2041   2042      1
  2111   2041   2052      1
  2112   2042   2043      1
  2113   2042   2053      1
  2114   2043   2044      1
  2115   2043   2045      1
  2116   2045   2054      1
  2117   2045   2055      1
  2118   2056   2057      1
  2119   2056   2060      1
  2120   2056   2061      1
  2121   2057   2058      1
  2122   2058   2059      1
  2123   2058   2062      1
  2124   2059   2060      1
  2125   2059   2063      1
  2126   2060   2064      1
  2127   2062   2066      1
  2128   2067   2068      1
  2129   2067   2071      1
  2130   2067   2072      1
  2131   2069   2070      1
  2132   2069   2073      1
  2133   2070   2071      1
  2134   2070   2074      1
  2135   2071   2075      1
  2136   2072   2076      1
  2137   2073   2077      1
  2138   2078   2079      1
  2139   2078   2085      1
  2140   2078   2088      1
  2141   2078   2091      1
  2142   2079   2080      1
  2143   2079   2114      1
  2144   2080   2081      1
  2145   2080   2115      1
  2146   2081   2086      1
  2147   2081   2089      1
  2148   2081   2091      1
  2149   2082   2083      1
  2150   2082   2086      1
  2151   2082   2090      1
  2152   2083   2084      1
  2153   2084   2085      1
  2154   2084   2087      1
  2155   2085   2086      1
  2156   2085   2116      1
  2157   2086   2117      1
  2158   2087   2095      1
  2159   2087   2118      1
  2160   2088   2106      1
  2161   2088   2119      1
  2162   2088   2120      1
  2163   2089   2107      1
  2164   2089   2121      1
  2165   2089   2122      1
  2166   2090   2098      1
  2167   2090   2123      1
  2168   2092   2093      1
  2169   2092   2096      1
  2170   2093   2094      1
  2171   2093   2124      1
  2172   2094   2095      1
  2173   2094   2125      1
  2174   2095   2096      1
  2175   2097   2098      1
  2176   2097   2101      1
  2177   2098   2099      1
  2178   2099   2100      1
  2179   2099   2126      1
  2180   2100   2101      1
  2181   2100   2127      1
  2182   2101   2113      1
  2183   2102   2103      1
  2184   2102   2106      1
  2185   2103   2104      1
  2186   2103   2112      1
  2187   2104   2105      1
  2188   2104   2128      1
  2189   2105   2106      1
  2190   2105   2129      1
  2191   2107   2108      1
  2192   2107   2111      1
  2193   2108   2109      1
  2194   2108   2130      1
  2195   2109   2110      1
  2196   2109   2131      1
  2197   2110   2111      1
  2198   2110   2151      1
  2199   2110   2182      1
  2200   2112   2132      1
  2201   2112   2133      1
  2202   2113   2134      1
  2203   2113   2135      1
  2204   2136   2137      1
  2205   2136   2143      1
  2206   2136   2146      1
  2207   2136   2149      1
  2208   2137   2138      1
  2209   2137   2172      1
  2210   2138   2139      1
  2211   2138   2173      1
  2212   2139   2144      1
  2213   2139   2147      1
  2214   2139   2149      1
  2215   2140   2141      1
  2216   2140   2144      1
  2217   2140   2148      1
  2218   2141   2142      1
  2219   2142   2143      1
  2220   2142   2145      1
  2221   2143   2144      1
  2222   2143   2174      1
  2223   2144   2175      1
  2224   2145   2153      1
  2225   2145   2176      1
  2226   2146   2164      1
  2227   2146   2177      1
  2228   2146   2178      1
  2229   2147   2165      1
  2230   2147   2179      1
  2231   2147   2180      1
  2232   2148   2156      1
  2233   2148   2181      1
  2234   2150   2151      1
  2235   2150   2154      1
  2236   2151   2152      1
  2237   2152   2153      1
  2238   2152   2183      1
  2239   2153   2154      1
  2240   2155   2156      1
  2241   2155   2159      1
  2242   2156   2157      1
  2243   2157   2158      1
  2244   2157   2184      1
  2245   2158   2159      1
  2246   2158   2185      1
  2247   2159   2171      1
  2248   2160   2161      1
  2249   2160   2164      1
  2250   2161   2162      1
  2251   2161   2170      1
  2252   2162   2163      1
  2253   2162   2186      1
  2254   2163   2164      1
  2255   2163   2187      1
  2256   2165   2166      1
  2257   2165   2169      1
  2258   2166   2167      1
  2259   2166   2188      1
  2260   2167   2168      1
  2261   2167   2189      1
  2262   2170   2190      1
  2263   2170   2191      1
  2264   2171   2192      1
  2265   2171   2193      1
  2266   2194   2195      1
  2267   2194   2201      1
  2268   2194   2204      1
  2269   2194   2207      1
  2270   2195   2196      1
  2271   2195   2230      1
  2272   2196   2197      1
  2273   2196   2231      1
  2274   2197   2202      1
  2275   2197   2205      1
  2276   2198   2199      1
  2277   2198   2202      1
  2278   2198   2206      1
  2279   2199   2200      1
  2280   2200   2201      1
  2281   2200   2203      1
  2282   2201   2202      1
  2283   2201   2232      1
  2284   2202   2233      1
  2285   2203   2211      1
  2286   2203   2234      1
  2287   2204   2222      1
  2288   2204   2235      1
  2289   2204   2236      1
  2290   2205   2223      1
  2291   2205   2237      1
  2292   2205   2238      1
  2293   2206   2214      1
  2294   2206   2239      1
  2295   2207   2308      1
  2296   2208   2209      1
  2297   2208   2212      1
  2298   2208   2229      1
  2299   2209   2210      1
  2300   2209   2240      1
  2301   2210   2211      1
  2302   2210   2241      1
  2303   2211   2212      1
  2304   2213   2214      1
  2305   2214   2215      1
  2306   2215   2216      1
  2307   2215   2242      1
  2308   2216   2217      1
  2309   2216   2243      1
  2310   2217   3649      1
  2311   2218   2222      1
  2312   2219   2220      1
  2313   2220   2221      1
  2314   2220   2244      1
  2315   2221   2222      1
  2316   2221   2245      1
  2317   2223   2224      1
  2318   2223   2227      1
  2319   2223   2287      1
  2320   2224   2246      1
  2321   2224   2287      1
  2322   2225   2226      1
  2323   2225   2266      1
  2324   2225   2287      1
  2325   2226   2227      1
  2326   2226   2228      1
  2327   2228   2248      1
  2328   2228   2249      1
  2329   2229   2250      1
  2330   2229   2251      1
  2331   2247   2265      1
  2332   2252   2253      1
  2333   2252   2259      1
  2334   2252   2262      1
  2335   2252   2265      1
  2336   2253   2254      1
  2337   2253   2288      1
  2338   2254   2255      1
  2339   2254   2289      1
  2340   2255   2260      1
  2341   2255   2263      1
  2342   2256   2257      1
  2343   2256   2260      1
  2344   2256   2264      1
  2345   2257   2258      1
  2346   2258   2259      1
  2347   2258   2261      1
  2348   2259   2260      1
  2349   2259   2290      1
  2350   2260   2291      1
  2351   2261   2269      1
  2352   2261   2292      1
  2353   2262   2280      1
  2354   2262   2293      1
  2355   2262   2294      1
  2356   2263   2281      1
  2357   2263   2295      1
  2358   2263   2296      1
  2359   2264   2272      1
  2360   2264   2297      1
  2361   2266   2267      1
  2362   2266   2270      1
  2363   2267   2268      1
  2364   2267   2298      1
  2365   2268   2269      1
  2366   2268   2299      1
  2367   2269   2270      1
  2368   2271   2272      1
  2369   2271   2275      1
  2370   2272   2273      1
  2371   2273   2274      1
  2372   2273   2300      1
  2373   2274   2275      1
  2374   2274   2301      1
  2375   2276   2280      1
  2376   2277   2278      1
  2377   2277   4298      1
  2378   2278   2279      1
  2379   2278   2302      1
  2380   2279   2280      1
  2381   2279   2303      1
  2382   2281   2282      1
  2383   2281   2285      1
  2384   2282   2283      1
  2385   2282   2304      1
  2386   2283   2284      1
  2387   2283   2305      1
  2388   2284   2285      1
  2389   2284   2286      1
  2390   2286   2306      1
  2391   2286   2307      1
  2392   2310   2311      1
  2393   2310   2316      1
  2394   2310   2323      1
  2395   2311   2312      1
  2396   2311   2329      1
  2397   2312   2313      1
  2398   2312   2330      1
  2399   2313   2314      1
  2400   2313   2315      1
  2401   2314   2317      1
  2402   2314   2331      1
  2403   2314   2332      1
  2404   2317   2318      1
  2405   2317   2321      1
  2406   2318   2319      1
  2407   2318   2333      1
  2408   2319   2320      1
  2409   2319   2334      1
  2410   2320   2321      1
  2411   2320   2322      1
  2412   2322   2335      1
  2413   2322   2336      1
  2414   2323   2327      1
  2415   2323   2337      1
  2416   2323   2338      1
  2417   2324   2325      1
  2418   2324   3913      1
  2419   2325   2326      1
  2420   2325   2339      1
  2421   2326   2327      1
  2422   2326   2340      1
  2423   2327   2328      1
  2424   2341   2342      1
  2425   2341   2347      1
  2426   2341   2354      1
  2427   2342   2343      1
  2428   2342   2360      1
  2429   2343   2344      1
  2430   2343   2361      1
  2431   2344   2345      1
  2432   2344   2346      1
  2433   2345   2348      1
  2434   2345   2362      1
  2435   2345   2363      1
  2436   2348   2349      1
  2437   2348   2352      1
  2438   2349   2364      1
  2439   2350   2365      1
  2440   2351   2352      1
  2441   2353   2366      1
  2442   2353   2367      1
  2443   2354   2358      1
  2444   2354   2368      1
  2445   2354   2369      1
  2446   2355   2455      1
  2447   2356   2357      1
  2448   2356   2370      1
  2449   2357   2358      1
  2450   2357   2371      1
  2451   2358   2359      1
  2452   2359   4189      1
  2453   2372   2373      1
  2454   2372   2376      1
  2455   2372   2377      1
  2456   2373   2374      1
  2457   2374   2375      1
  2458   2374   2383      1
  2459   2375   2376      1
  2460   2375   2390      1
  2461   2376   2391      1
  2462   2377   2384      1
  2463   2377   2392      1
  2464   2378   2379      1
  2465   2378   2382      1
  2466   2378   2383      1
  2467   2379   2380      1
  2468   2380   2381      1
  2469   2381   2382      1
  2470   2381   2393      1
  2471   2382   2394      1
  2472   2383   2395      1
  2473   2384   2385      1
  2474   2384   2388      1
  2475   2385   2386      1
  2476   2385   2396      1
  2477   2386   2387      1
  2478   2386   2397      1
  2479   2387   2388      1
  2480   2387   2389      1
  2481   2389   2398      1
  2482   2389   2399      1
  2483   2400   2401      1
  2484   2402   2403      1
  2485   2402   2411      1
  2486   2404   2419      1
  2487   2405   2412      1
  2488   2406   2407      1
  2489   2406   2410      1
  2490   2406   2411      1
  2491   2409   2421      1
  2492   2411   2423      1
  2493   2412   2413      1
  2494   2412   2416      1
  2495   2413   2414      1
  2496   2413   2424      1
  2497   2414   2415      1
  2498   2414   2425      1
  2499   2415   2416      1
  2500   2415   2417      1
  2501   2417   2426      1
  2502   2417   2427      1
  2503   2428   2429      1
  2504   2428   2432      1
  2505   2428   2433      1
  2506   2429   2430      1
  2507   2430   2431      1
  2508   2430   2434      1
  2509   2431   2432      1
  2510   2431   2435      1
  2511   2432   2436      1
  2512   2433   2437      1
  2513   2434   2438      1
  2514   2439   2440      1
  2515   2439   2443      1
  2516   2439   2444      1
  2517   2440   2441      1
  2518   2441   2442      1
  2519   2441   2445      1
  2520   2442   2443      1
  2521   2442   2446      1
  2522   2443   2447      1
  2523   2444   2448      1
  2524   2445   2449      1
  2525   2450   2451      1
  2526   2450   2454      1
  2527   2450   2455      1
  2528   2451   2452      1
  2529   2452   2453      1
  2530   2452   2456      1
  2531   2453   2454      1
  2532   2453   2457      1
  2533   2454   2458      1
  2534   2455   2459      1
  2535   2456   2460      1
  2536   2461   2462      1
  2537   2461   2465      1
  2538   2461   2466      1
  2539   2462   2463      1
  2540   2463   2464      1
  2541   2463   2467      1
  2542   2464   2465      1
  2543   2464   2468      1
  2544   2465   2469      1
  2545   2466   2470      1
  2546   2467   2471      1
  2547   2472   2473      1
  2548   2472   2479      1
  2549   2472   2485      1
  2550   2473   2474      1
  2551   2473   2508      1
  2552   2474   2475      1
  2553   2474   2509      1
  2554   2475   2480      1
  2555   2475   2483      1
  2556   2475   2485      1
  2557   2476   2480      1
  2558   2476   2484      1
  2559   2478   2479      1
  2560   2479   2480      1
  2561   2479   2510      1
  2562   2480   2511      1
  2563   2481   2489      1
  2564   2482   2500      1
  2565   2482   2513      1
  2566   2482   2514      1
  2567   2483   2501      1
  2568   2483   2515      1
  2569   2483   2516      1
  2570   2484   2492      1
  2571   2486   2487      1
  2572   2486   2490      1
  2573   2487   2488      1
  2574   2487   2518      1
  2575   2488   2489      1
  2576   2488   2519      1
  2577   2489   2490      1
  2578   2491   2492      1
  2579   2491   2495      1
  2580   2492   2493      1
  2581   2493   2494      1
  2582   2494   2495      1
  2583   2494   2521      1
  2584   2495   2507      1
  2585   2496   2497      1
  2586   2496   2500      1
  2587   2497   2506      1
  2588   2498   2499      1
  2589   2498   2522      1
  2590   2499   2523      1
  2591   2501   2502      1
  2592   2501   2505      1
  2593   2502   2503      1
  2594   2502   2524      1
  2595   2503   2504      1
  2596   2503   2525      1
  2597   2504   2505      1
  2598   2504   2545      1
  2599   2504   2576      1
  2600   2506   2526      1
  2601   2506   2527      1
  2602   2507   2528      1
  2603   2507   2529      1
  2604   2530   2531      1
  2605   2530   2537      1
  2606   2530   2540      1
  2607   2530   2543      1
  2608   2531   2532      1
  2609   2531   2566      1
  2610   2532   2533      1
  2611   2532   2567      1
  2612   2533   2538      1
  2613   2533   2541      1
  2614   2533   2543      1
  2615   2534   2535      1
  2616   2534   2538      1
  2617   2534   2542      1
  2618   2535   2536      1
  2619   2536   2537      1
  2620   2536   2539      1
  2621   2537   2538      1
  2622   2537   2568      1
  2623   2538   2569      1
  2624   2539   2547      1
  2625   2539   2570      1
  2626   2540   2558      1
  2627   2540   2571      1
  2628   2540   2572      1
  2629   2541   2559      1
  2630   2541   2573      1
  2631   2541   2574      1
  2632   2542   2550      1
  2633   2542   2575      1
  2634   2544   2545      1
  2635   2544   2548      1
  2636   2545   2546      1
  2637   2546   2547      1
  2638   2546   2577      1
  2639   2547   2548      1
  2640   2549   2550      1
  2641   2549   2553      1
  2642   2550   2551      1
  2643   2551   2552      1
  2644   2551   2578      1
  2645   2552   2553      1
  2646   2552   2579      1
  2647   2553   2565      1
  2648   2554   2555      1
  2649   2554   2558      1
  2650   2555   2556      1
  2651   2555   2564      1
  2652   2556   2557      1
  2653   2556   2580      1
  2654   2557   2558      1
  2655   2557   2581      1
  2656   2559   2560      1
  2657   2559   2563      1
  2658   2560   2561      1
  2659   2560   2582      1
  2660   2561   2562      1
  2661   2561   2583      1
  2662   2562   4438      1
  2663   2564   2584      1
  2664   2564   2585      1
  2665   2565   2586      1
  2666   2565   2587      1
  2667   2588   2589      1
  2668   2588   2595      1
  2669   2588   2598      1
  2670   2588   2601      1
  2671   2589   2590      1
  2672   2589   2624      1
  2673   2590   2591      1
  2674   2590   2625      1
  2675   2591   2596      1
  2676   2591   2599      1
  2677   2592   2593      1
  2678   2592   2596      1
  2679   2592   2600      1
  2680   2593   2594      1
  2681   2594   2595      1
  2682   2594   2597      1
  2683   2595   2596      1
  2684   2595   2626      1
  2685   2596   2627      1
  2686   2597   2605      1
  2687   2597   2628      1
  2688   2598   2629      1
  2689   2598   2630      1
  2690   2599   2617      1
  2691   2599   2631      1
  2692   2600   2608      1
  2693   2600   2633      1
  2694   2601   2702      1
  2695   2602   2603      1
  2696   2602   2606      1
  2697   2602   2623      1
  2698   2603   2634      1
  2699   2604   2605      1
  2700   2604   2635      1
  2701   2607   2608      1
  2702   2607   2632      1
  2703   2608   2609      1
  2704   2609   2610      1
  2705   2609   2636      1
  2706   2610   2611      1
  2707   2610   2637      1
  2708   2612   2613      1
  2709   2612   2616      1
  2710   2613   2614      1
  2711   2614   2615      1
  2712   2614   2638      1
  2713   2615   2616      1
  2714   2617   2618      1
  2715   2617   2681      1
  2716   2618   2640      1
  2717   2618   2681      1
  2718   2619   2620      1
  2719   2619   2660      1
  2720   2619   2681      1
  2721   2620   2621      1
  2722   2620   2622      1
  2723   2621   2703      1
  2724   2622   2642      1
  2725   2622   2643      1
  2726   2623   2644      1
  2727   2623   2645      1
  2728   2641   2664      1
  2729   2646   2647      1
  2730   2646   2653      1
  2731   2646   2656      1
  2732   2646   2659      1
  2733   2647   2648      1
  2734   2647   2682      1
  2735   2648   2683      1
  2736   2649   2654      1
  2737   2649   2657      1
  2738   2650   2651      1
  2739   2650   2654      1
  2740   2650   2658      1
  2741   2652   2653      1
  2742   2652   2655      1
  2743   2653   2684      1
  2744   2654   2685      1
  2745   2655   2663      1
  2746   2655   2686      1
  2747   2656   2674      1
  2748   2656   2687      1
  2749   2656   2688      1
  2750   2657   2675      1
  2751   2657   2689      1
  2752   2657   2690      1
  2753   2658   2666      1
  2754   2658   2691      1
  2755   2659   4032      1
  2756   2660   2661      1
  2757   2661   2662      1
  2758   2661   2692      1
  2759   2662   2663      1
  2760   2662   2693      1
  2761   2663   2664      1
  2762   2665   2666      1
  2763   2665   2669      1
  2764   2666   2667      1
  2765   2667   2668      1
  2766   2667   2694      1
  2767   2668   2669      1
  2768   2668   2695      1
  2769   2670   2674      1
  2770   2671   2672      1
  2771   2672   2696      1
  2772   2673   2674      1
  2773   2673   2697      1
  2774   2675   2676      1
  2775   2675   2679      1
  2776   2676   2677      1
  2777   2676   2698      1
  2778   2677   2678      1
  2779   2677   2699      1
  2780   2678   2679      1
  2781   2678   2680      1
  2782   2680   2700      1
  2783   2704   2705      1
  2784   2704   2710      1
  2785   2704   2717      1
  2786   2705   2706      1
  2787   2705   2723      1
  2788   2706   2707      1
  2789   2706   2724      1
  2790   2707   2708      1
  2791   2707   2709      1
  2792   2708   2711      1
  2793   2708   2725      1
  2794   2708   2726      1
  2795   2711   2712      1
  2796   2711   2715      1
  2797   2712   2713      1
  2798   2712   2727      1
  2799   2713   2714      1
  2800   2713   2728      1
  2801   2714   2716      1
  2802   2716   2729      1
  2803   2716   2730      1
  2804   2717   2721      1
  2805   2717   2731      1
  2806   2717   2732      1
  2807   2718   2719      1
  2808   2719   2720      1
  2809   2719   2733      1
  2810   2720   2721      1
  2811   2720   2734      1
  2812   2721   2722      1
  2813   2735   2736      1
  2814   2735   2741      1
  2815   2735   2748      1
  2816   2736   2737      1
  2817   2736   2754      1
  2818   2737   2738      1
  2819   2737   2755      1
  2820   2738   2739      1
  2821   2738   2740      1
  2822   2739   2742      1
  2823   2739   2756      1
  2824   2739   2757      1
  2825   2742   2743      1
  2826   2742   2746      1
  2827   2743   2744      1
  2828   2743   2758      1
  2829   2744   2745      1
  2830   2744   2759      1
  2831   2745   2746      1
  2832   2745   2747      1
  2833   2747   2760      1
  2834   2747   2761      1
  2835   2748   2752      1
  2836   2748   2762      1
  2837   2748   2763      1
  2838   2749   2750      1
  2839   2749   4316      1
  2840   2750   2751      1
  2841   2750   2764      1
  2842   2751   2752      1
  2843   2751   2765      1
  2844   2752   2753      1
  2845   2766   2767      1
  2846   2766   2770      1
  2847   2766   2771      1
  2848   2767   2768      1
  2849   2768   2769      1
  2850   2768   2777      1
  2851   2769   2770      1
  2852   2769   2784      1
  2853   2770   2785      1
  2854   2771   2778      1
  2855   2771   2786      1
  2856   2772   2773      1
  2857   2772   2776      1
  2858   2772   2777      1
  2859   2774   2775      1
  2860   2775   2776      1
  2861   2775   2787      1
  2862   2776   2788      1
  2863   2777   2789      1
  2864   2778   2779      1
  2865   2778   2782      1
  2866   2779   2780      1
  2867   2779   2790      1
  2868   2780   2781      1
  2869   2780   2791      1
  2870   2781   2782      1
  2871   2781   2783      1
  2872   2783   2792      1
  2873   2783   2793      1
  2874   2794   2795      1
  2875   2794   2798      1
  2876   2794   2799      1
  2877   2795   2796      1
  2878   2796   2797      1
  2879   2796   2805      1
  2880   2797   2798      1
  2881   2797   2812      1
  2882   2798   2813      1
  2883   2799   2806      1
  2884   2799   2814      1
  2885   2800   2801      1
  2886   2800   2804      1
  2887   2800   2805      1
  2888   2801   3007      1
  2889   2802   2803      1
  2890   2803   2804      1
  2891   2803   2815      1
  2892   2804   2816      1
  2893   2805   2817      1
  2894   2806   2807      1
  2895   2806   2810      1
  2896   2807   2808      1
  2897   2807   2818      1
  2898   2808   2809      1
  2899   2808   2819      1
  2900   2809   2810      1
  2901   2809   2811      1
  2902   2811   2820      1
  2903   2811   2821      1
  2904   2822   2823      1
  2905   2822   2827      1
  2906   2823   2824      1
  2907   2824   2828      1
  2908   2825   2826      1
  2909   2825   2829      1
  2910   2826   2830      1
  2911   2827   2831      1
  2912   2828   2832      1
  2913   2828   4434      1
  2914   2833   2834      1
  2915   2833   2837      1
  2916   2833   2838      1
  2917   2834   2835      1
  2918   2835   2836      1
  2919   2835   2839      1
  2920   2836   2837      1
  2921   2836   2840      1
  2922   2837   2841      1
  2923   2838   2842      1
  2924   2839   2843      1
  2925   2844   2845      1
  2926   2844   2848      1
  2927   2844   2849      1
  2928   2845   2846      1
  2929   2846   2847      1
  2930   2846   2850      1
  2931   2847   2848      1
  2932   2847   2851      1
  2933   2848   2852      1
  2934   2849   2853      1
  2935   2850   2854      1
  2936   2855   2856      1
  2937   2855   2859      1
  2938   2855   2860      1
  2939   2856   2857      1
  2940   2857   2858      1
  2941   2857   2861      1
  2942   2858   2859      1
  2943   2858   2862      1
  2944   2859   2863      1
  2945   2860   2864      1
  2946   2860   4619      1
  2947   2861   2865      1
  2948   2866   2867      1
  2949   2866   2873      1
  2950   2866   2876      1
  2951   2867   2868      1
  2952   2867   2902      1
  2953   2868   2869      1
  2954   2868   2879      1
  2955   2868   2903      1
  2956   2869   2874      1
  2957   2869   2877      1
  2958   2869   2879      1
  2959   2870   2871      1
  2960   2870   2874      1
  2961   2870   2878      1
  2962   2871   2872      1
  2963   2872   2873      1
  2964   2872   2875      1
  2965   2873   2874      1
  2966   2873   2904      1
  2967   2874   2905      1
  2968   2875   2883      1
  2969   2875   2906      1
  2970   2876   2894      1
  2971   2876   2907      1
  2972   2876   2908      1
  2973   2877   2895      1
  2974   2877   2909      1
  2975   2877   2910      1
  2976   2878   2886      1
  2977   2878   2911      1
  2978   2880   2881      1
  2979   2880   2884      1
  2980   2881   2882      1
  2981   2881   2912      1
  2982   2882   2883      1
  2983   2882   2913      1
  2984   2883   2884      1
  2985   2885   2886      1
  2986   2885   2889      1
  2987   2886   2887      1
  2988   2887   2888      1
  2989   2887   2914      1
  2990   2888   2889      1
  2991   2888   2915      1
  2992   2889   2901      1
  2993   2890   2891      1
  2994   2890   2894      1
  2995   2891   2892      1
  2996   2891   2900      1
  2997   2892   2893      1
  2998   2892   2916      1
  2999   2893   2894      1
  3000   2893   2917      1
  3001   2895   2896      1
  3002   2895   2899      1
  3003   2896   2897      1
  3004   2896   2918      1
  3005   2897   2898      1
  3006   2897   2919      1
  3007   2898   2899      1
  3008   2898   2939      1
  3009   2898   2970      1
  3010   2900   2920      1
  3011   2900   2921      1
  3012   2901   2922      1
  3013   2901   2923      1
  3014   2924   2925      1
  3015   2924   2931      1
  3016   2924   2934      1
  3017   2924   2937      1
  3018   2925   2926      1
  3019   2925   2960      1
  3020   2926   2927      1
  3021   2926   2961      1
  3022   2927   2932      1
  3023   2927   2935      1
  3024   2927   2937      1
  3025   2928   2929      1
  3026   2928   2932      1
  3027   2928   2936      1
  3028   2929   2930      1
  3029   2930   2931      1
  3030   2930   2933      1
  3031   2931   2932      1
  3032   2931   2962      1
  3033   2932   2963      1
  3034   2933   2941      1
  3035   2933   2964      1
  3036   2934   2952      1
  3037   2934   2965      1
  3038   2934   2966      1
  3039   2935   2953      1
  3040   2935   2967      1
  3041   2935   2968      1
  3042   2936   2944      1
  3043   2936   2969      1
  3044   2938   2939      1
  3045   2938   2942      1
  3046   2939   2940      1
  3047   2940   2941      1
  3048   2940   2971      1
  3049   2941   2942      1
  3050   2943   2944      1
  3051   2943   2947      1
  3052   2944   2945      1
  3053   2945   2946      1
  3054   2945   2972      1
  3055   2946   2947      1
  3056   2946   2973      1
  3057   2947   2959      1
  3058   2948   2949      1
  3059   2948   2952      1
  3060   2949   2950      1
  3061   2949   2958      1
  3062   2950   2951      1
  3063   2950   2974      1
  3064   2951   2952      1
  3065   2951   2975      1
  3066   2953   2954      1
  3067   2953   2957      1
  3068   2954   2955      1
  3069   2954   2976      1
  3070   2955   2956      1
  3071   2955   2977      1
  3072   2956   2957      1
  3073   2956   3953      1
  3074   2958   2978      1
  3075   2958   2979      1
  3076   2959   2980      1
  3077   2959   2981      1
  3078   2982   2983      1
  3079   2982   2989      1
  3080   2982   2992      1
  3081   2982   2995      1
  3082   2983   2984      1
  3083   2983   3018      1
  3084   2984   2985      1
  3085   2984   3019      1
  3086   2985   2990      1
  3087   2985   2993      1
  3088   2986   2987      1
  3089   2986   2990      1
  3090   2986   2994      1
  3091   2987   2988      1
  3092   2988   2989      1
  3093   2988   2991      1
  3094   2989   2990      1
  3095   2989   3020      1
  3096   2990   3021      1
  3097   2991   2999      1
  3098   2991   3022      1
  3099   2992   3010      1
  3100   2992   3023      1
  3101   2992   3024      1
  3102   2993   3011      1
  3103   2993   3026      1
  3104   2994   3002      1
  3105   2994   3027      1
  3106   2995   3096      1
  3107   2996   2997      1
  3108   2996   3000      1
  3109   2996   3017      1
  3110   2997   2998      1
  3111   2998   2999      1
  3112   2999   3000      1
  3113   3001   3002      1
  3114   3001   3025      1
  3115   3002   3003      1
  3116   3003   3004      1
  3117   3003   3030      1
  3118   3004   3005      1
  3119   3004   3031      1
  3120   3005   4404      1
  3121   3006   3010      1
  3122   3007   3008      1
  3123   3008   3009      1
  3124   3008   3032      1
  3125   3009   3010      1
  3126   3009   3033      1
  3127   3011   3012      1
  3128   3011   3075      1
  3129   3012   3034      1
  3130   3012   3075      1
  3131   3013   3014      1
  3132   3013   3054      1
  3133   3013   3075      1
  3134   3014   3015      1
  3135   3014   3016      1
  3136   3015   3097      1
  3137   3016   3036      1
  3138   3016   3037      1
  3139   3017   3038      1
  3140   3017   3039      1
  3141   3035   3046      1
  3142   3040   3041      1
  3143   3040   3047      1
  3144   3040   3050      1
  3145   3040   3053      1
  3146   3041   3042      1
  3147   3041   3076      1
  3148   3042   3043      1
  3149   3042   3077      1
  3150   3043   3048      1
  3151   3043   3051      1
  3152   3044   3045      1
  3153   3044   3048      1
  3154   3044   3052      1
  3155   3045   3046      1
  3156   3046   3047      1
  3157   3046   3049      1
  3158   3047   3048      1
  3159   3047   3078      1
  3160   3048   3079      1
  3161   3049   3057      1
  3162   3049   3080      1
  3163   3050   3068      1
  3164   3050   3081      1
  3165   3050   3082      1
  3166   3051   3069      1
  3167   3051   3083      1
  3168   3051   3084      1
  3169   3052   3060      1
  3170   3052   3085      1
  3171   3054   3055      1
  3172   3054   3058      1
  3173   3055   3056      1
  3174   3055   3086      1
  3175   3056   3057      1
  3176   3056   3087      1
  3177   3057   3058      1
  3178   3059   3060      1
  3179   3059   3063      1
  3180   3060   3061      1
  3181   3061   3062      1
  3182   3061   3088      1
  3183   3062   3063      1
  3184   3062   3089      1
  3185   3064   3065      1
  3186   3064   3068      1
  3187   3065   3066      1
  3188   3066   3067      1
  3189   3066   3090      1
  3190   3067   3068      1
  3191   3067   3091      1
  3192   3069   3070      1
  3193   3069   3073      1
  3194   3070   3071      1
  3195   3070   3092      1
  3196   3071   3072      1
  3197   3071   3093      1
  3198   3072   3073      1
  3199   3072   3074      1
  3200   3074   3094      1
  3201   3074   3095      1
  3202   3098   3099      1
  3203   3098   3104      1
  3204   3098   3111      1
  3205   3099   3100      1
  3206   3099   3117      1
  3207   3100   3101      1
  3208   3100   3118      1
  3209   3101   3102      1
  3210   3101   3103      1
  3211   3102   3105      1
  3212   3102   3119      1
  3213   3102   3120      1
  3214   3105   3106      1
  3215   3105   3109      1
  3216   3106   3107      1
  3217   3106   3121      1
  3218   3107   3108      1
  3219   3107   3122      1
  3220   3108   3109      1
  3221   3108   3110      1
  3222   3110   3123      1
  3223   3110   3124      1
  3224   3111   3125      1
  3225   3111   3126      1
  3226   3112   3113      1
  3227   3112   3116      1
  3228   3113   3114      1
  3229   3113   3127      1
  3230   3114   3115      1
  3231   3114   3128      1
  3232   3115   3116      1
  3233   3129   3130      1
  3234   3129   3135      1
  3235   3129   3142      1
  3236   3130   3131      1
  3237   3130   3148      1
  3238   3131   3132      1
  3239   3131   3149      1
  3240   3132   3133      1
  3241   3132   3134      1
  3242   3133   3136      1
  3243   3133   3150      1
  3244   3133   3151      1
  3245   3136   3137      1
  3246   3136   3140      1
  3247   3137   3138      1
  3248   3137   3152      1
  3249   3138   3139      1
  3250   3138   3153      1
  3251   3139   3140      1
  3252   3139   3141      1
  3253   3141   3154      1
  3254   3141   3155      1
  3255   3142   3146      1
  3256   3142   3156      1
  3257   3142   3157      1
  3258   3143   3144      1
  3259   3144   3145      1
  3260   3144   3158      1
  3261   3145   3146      1
  3262   3145   3159      1
  3263   3146   3147      1
  3264   3160   3161      1
  3265   3160   3164      1
  3266   3160   3165      1
  3267   3161   3162      1
  3268   3162   3163      1
  3269   3163   3164      1
  3270   3163   3178      1
  3271   3164   3179      1
  3272   3165   3172      1
  3273   3165   3180      1
  3274   3166   3167      1
  3275   3166   3171      1
  3276   3167   3168      1
  3277   3169   3170      1
  3278   3169   3181      1
  3279   3170   3182      1
  3280   3171   3183      1
  3281   3172   3173      1
  3282   3172   3176      1
  3283   3173   3174      1
  3284   3173   3184      1
  3285   3174   3175      1
  3286   3174   3185      1
  3287   3175   3176      1
  3288   3175   3177      1
  3289   3177   3186      1
  3290   3177   3187      1
  3291   3188   3189      1
  3292   3188   3192      1
  3293   3188   3193      1
  3294   3189   3190      1
  3295   3190   3191      1
  3296   3190   3199      1
  3297   3191   3192      1
  3298   3191   3206      1
  3299   3192   3207      1
  3300   3193   3200      1
  3301   3193   3208      1
  3302   3194   3195      1
  3303   3194   3198      1
  3304   3195   3502      1
  3305   3196   3197      1
  3306   3197   3198      1
  3307   3197   3209      1
  3308   3198   3210      1
  3309   3199   3211      1
  3310   3200   3201      1
  3311   3200   3204      1
  3312   3201   3202      1
  3313   3201   3212      1
  3314   3202   3203      1
  3315   3202   3213      1
  3316   3203   3204      1
  3317   3203   3205      1
  3318   3205   3214      1
  3319   3205   3215      1
  3320   3216   3217      1
  3321   3216   3220      1
  3322   3216   3221      1
  3323   3217   3218      1
  3324   3218   3219      1
  3325   3218   3222      1
  3326   3219   3220      1
  3327   3219   3223      1
  3328   3220   3224      1
  3329   3221   3225      1
  3330   3222   3226      1
  3331   3227   3228      1
  3332   3227   3231      1
  3333   3227   3232      1
  3334   3229   3230      1
  3335   3229   3233      1
  3336   3230   3231      1
  3337   3230   3234      1
  3338   3231   3235      1
  3339   3232   3236      1
  3340   3233   3237      1
  3341   3238   3239      1
  3342   3238   3242      1
  3343   3238   3243      1
  3344   3239   3240      1
  3345   3240   3241      1
  3346   3240   3244      1
  3347   3241   3242      1
  3348   3241   3245      1
  3349   3242   3246      1
  3350   3243   3247      1
  3351   3244   3248      1
  3352   3249   3250      1
  3353   3249   3253      1
  3354   3249   3254      1
  3355   3250   3251      1
  3356   3251   3252      1
  3357   3251   3255      1
  3358   3252   3253      1
  3359   3252   3256      1
  3360   3253   3257      1
  3361   3254   3258      1
  3362   3254   3811      1
  3363   3255   3259      1
  3364   3260   3261      1
  3365   3260   3264      1
  3366   3260   3265      1
  3367   3261   3262      1
  3368   3262   3263      1
  3369   3262   3266      1
  3370   3263   3264      1
  3371   3263   3267      1
  3372   3264   3268      1
  3373   3265   3269      1
  3374   3266   3270      1
  3375   3271   3272      1
  3376   3271   3278      1
  3377   3271   3281      1
  3378   3271   3284      1
  3379   3272   3273      1
  3380   3272   3307      1
  3381   3273   3274      1
  3382   3273   3308      1
  3383   3274   3279      1
  3384   3274   3282      1
  3385   3274   3284      1
  3386   3275   3276      1
  3387   3275   3279      1
  3388   3275   3283      1
  3389   3276   3277      1
  3390   3277   3278      1
  3391   3277   3280      1
  3392   3278   3279      1
  3393   3278   3309      1
  3394   3279   3310      1
  3395   3280   3288      1
  3396   3280   3311      1
  3397   3281   3299      1
  3398   3281   3312      1
  3399   3281   3313      1
  3400   3282   3300      1
  3401   3282   3314      1
  3402   3282   3315      1
  3403   3283   3291      1
  3404   3283   3316      1
  3405   3285   3286      1
  3406   3285   3289      1
  3407   3286   3287      1
  3408   3286   3317      1
  3409   3287   3288      1
  3410   3287   3318      1
  3411   3288   3289      1
  3412   3290   3291      1
  3413   3290   3294      1
  3414   3291   3292      1
  3415   3292   3293      1
  3416   3292   3319      1
  3417   3293   3294      1
  3418   3293   3320      1
  3419   3294   3306      1
  3420   3295   3296      1
  3421   3295   3299      1
  3422   3296   3297      1
  3423   3296   3305      1
  3424   3297   3298      1
  3425   3297   3321      1
  3426   3298   3299      1
  3427   3298   3322      1
  3428   3300   3301      1
  3429   3300   3304      1
  3430   3301   3302      1
  3431   3301   3323      1
  3432   3302   3303      1
  3433   3302   3324      1
  3434   3303   3304      1
  3435   3303   3344      1
  3436   3303   3375      1
  3437   3305   3325      1
  3438   3305   3326      1
  3439   3306   3327      1
  3440   3306   3328      1
  3441   3329   3330      1
  3442   3329   3336      1
  3443   3329   3339      1
  3444   3329   3342      1
  3445   3330   3331      1
  3446   3330   3365      1
  3447   3331   3332      1
  3448   3331   3366      1
  3449   3332   3337      1
  3450   3332   3340      1
  3451   3332   3342      1
  3452   3333   3334      1
  3453   3333   3337      1
  3454   3333   3341      1
  3455   3334   3335      1
  3456   3335   3336      1
  3457   3335   3338      1
  3458   3336   3337      1
  3459   3336   3367      1
  3460   3337   3368      1
  3461   3338   3346      1
  3462   3338   3369      1
  3463   3339   3357      1
  3464   3339   3370      1
  3465   3339   3371      1
  3466   3340   3358      1
  3467   3340   3372      1
  3468   3340   3373      1
  3469   3341   3349      1
  3470   3341   3374      1
  3471   3343   3344      1
  3472   3343   3347      1
  3473   3344   3345      1
  3474   3345   3346      1
  3475   3345   3376      1
  3476   3346   3347      1
  3477   3348   3349      1
  3478   3348   3352      1
  3479   3350   3351      1
  3480   3350   3377      1
  3481   3351   3378      1
  3482   3352   3364      1
  3483   3353   3354      1
  3484   3353   3357      1
  3485   3354   3355      1
  3486   3354   3363      1
  3487   3355   3356      1
  3488   3355   3379      1
  3489   3356   3357      1
  3490   3356   3380      1
  3491   3358   3359      1
  3492   3358   3362      1
  3493   3359   3360      1
  3494   3359   3381      1
  3495   3360   3361      1
  3496   3360   3382      1
  3497   3363   3383      1
  3498   3363   3384      1
  3499   3364   3386      1
  3500   3387   3388      1
  3501   3387   3394      1
  3502   3387   3397      1
  3503   3387   3400      1
  3504   3388   3389      1
  3505   3388   3423      1
  3506   3389   3390      1
  3507   3390   3395      1
  3508   3390   3398      1
  3509   3391   3392      1
  3510   3391   3395      1
  3511   3391   3399      1
  3512   3392   3393      1
  3513   3393   3394      1
  3514   3393   3396      1
  3515   3394   3395      1
  3516   3394   3425      1
  3517   3395   3426      1
  3518   3396   3404      1
  3519   3396   3427      1
  3520   3397   3415      1
  3521   3397   3428      1
  3522   3397   3429      1
  3523   3398   3416      1
  3524   3398   3431      1
  3525   3399   3407      1
  3526   3399   3432      1
  3527   3400   3501      1
  3528   3401   3402      1
  3529   3401   3405      1
  3530   3401   3422      1
  3531   3402   3403      1
  3532   3402   3433      1
  3533   3403   3404      1
  3534   3403   3434      1
  3535   3404   3405      1
  3536   3406   3407      1
  3537   3406   3430      1
  3538   3407   3408      1
  3539   3408   3409      1
  3540   3408   3435      1
  3541   3409   3410      1
  3542   3409   3436      1
  3543   3411   3412      1
  3544   3411   3415      1
  3545   3412   3413      1
  3546   3413   3414      1
  3547   3413   3437      1
  3548   3414   3415      1
  3549   3414   3438      1
  3550   3416   3417      1
  3551   3417   3439      1
  3552   3417   3480      1
  3553   3418   3419      1
  3554   3418   3459      1
  3555   3419   3420      1
  3556   3419   3421      1
  3557   3421   3441      1
  3558   3421   3442      1
  3559   3422   3443      1
  3560   3422   3444      1
  3561   3440   3458      1
  3562   3445   3446      1
  3563   3445   3452      1
  3564   3445   3455      1
  3565   3446   3447      1
  3566   3446   3481      1
  3567   3447   3448      1
  3568   3447   3482      1
  3569   3448   3453      1
  3570   3449   3453      1
  3571   3449   3457      1
  3572   3450   3451      1
  3573   3451   3454      1
  3574   3452   3453      1
  3575   3452   3483      1
  3576   3453   3484      1
  3577   3454   3462      1
  3578   3454   3485      1
  3579   3455   3486      1
  3580   3455   3487      1
  3581   3456   3474      1
  3582   3456   3488      1
  3583   3456   3489      1
  3584   3457   3465      1
  3585   3457   3490      1
  3586   3459   3460      1
  3587   3459   3463      1
  3588   3460   3461      1
  3589   3460   3491      1
  3590   3461   3462      1
  3591   3461   3492      1
  3592   3462   3463      1
  3593   3464   3465      1
  3594   3464   3468      1
  3595   3465   3466      1
  3596   3466   3467      1
  3597   3466   3493      1
  3598   3467   3468      1
  3599   3467   3494      1
  3600   3469   3470      1
  3601   3469   3473      1
  3602   3470   3471      1
  3603   3471   3472      1
  3604   3471   3495      1
  3605   3472   3473      1
  3606   3472   3496      1
  3607   3474   3475      1
  3608   3474   3478      1
  3609   3475   3476      1
  3610   3475   3497      1
  3611   3476   3477      1
  3612   3476   3498      1
  3613   3477   3478      1
  3614   3477   3479      1
  3615   3479   3499      1
  3616   3479   3500      1
  3617   3503   3504      1
  3618   3503   3509      1
  3619   3503   3516      1
  3620   3504   3505      1
  3621   3504   3522      1
  3622   3505   3506      1
  3623   3505   3523      1
  3624   3506   3507      1
  3625   3506   3508      1
  3626   3507   3510      1
  3627   3507   3524      1
  3628   3507   3525      1
  3629   3510   3511      1
  3630   3510   3514      1
  3631   3511   3512      1
  3632   3511   3526      1
  3633   3512   3513      1
  3634   3512   3527      1
  3635   3513   3514      1
  3636   3513   3515      1
  3637   3515   3528      1
  3638   3515   3529      1
  3639   3516   3520      1
  3640   3516   3530      1
  3641   3516   3531      1
  3642   3517   3518      1
  3643   3517   3521      1
  3644   3518   3519      1
  3645   3518   3532      1
  3646   3519   3520      1
  3647   3519   3533      1
  3648   3520   3521      1
  3649   3534   3535      1
  3650   3534   3540      1
  3651   3534   3547      1
  3652   3535   3536      1
  3653   3535   3553      1
  3654   3536   3537      1
  3655   3536   3554      1
  3656   3537   3538      1
  3657   3537   3539      1
  3658   3538   3541      1
  3659   3538   3555      1
  3660   3538   3556      1
  3661   3541   3542      1
  3662   3541   3545      1
  3663   3542   3543      1
  3664   3542   3557      1
  3665   3543   3544      1
  3666   3543   3558      1
  3667   3544   3545      1
  3668   3544   3546      1
  3669   3546   3559      1
  3670   3546   3560      1
  3671   3547   3551      1
  3672   3547   3561      1
  3673   3547   3562      1
  3674   3548   3549      1
  3675   3549   3550      1
  3676   3549   3563      1
  3677   3550   3551      1
  3678   3550   3564      1
  3679   3551   3552      1
  3680   3552   4378      1
  3681   3565   3566      1
  3682   3565   3569      1
  3683   3565   3570      1
  3684   3566   3567      1
  3685   3567   3568      1
  3686   3567   3576      1
  3687   3568   3569      1
  3688   3568   3583      1
  3689   3569   3584      1
  3690   3570   3577      1
  3691   3570   3585      1
  3692   3571   3572      1
  3693   3571   3575      1
  3694   3571   3576      1
  3695   3573   3574      1
  3696   3574   3575      1
  3697   3574   3586      1
  3698   3575   3587      1
  3699   3576   3588      1
  3700   3577   3578      1
  3701   3577   3581      1
  3702   3578   3579      1
  3703   3578   3589      1
  3704   3579   3580      1
  3705   3579   3590      1
  3706   3580   3581      1
  3707   3580   3582      1
  3708   3582   3591      1
  3709   3582   3592      1
  3710   3593   3594      1
  3711   3593   3597      1
  3712   3593   3598      1
  3713   3594   3595      1
  3714   3595   3596      1
  3715   3595   3604      1
  3716   3596   3597      1
  3717   3596   3611      1
  3718   3597   3612      1
  3719   3598   3605      1
  3720   3598   3613      1
  3721   3599   3600      1
  3722   3599   3603      1
  3723   3599   3604      1
  3724   3600   3601      1
  3725   3601   3602      1
  3726   3602   3603      1
  3727   3602   3614      1
  3728   3603   3615      1
  3729   3604   3616      1
  3730   3605   3609      1
  3731   3606   3607      1
  3732   3606   3617      1
  3733   3607   3618      1
  3734   3608   3609      1
  3735   3608   3610      1
  3736   3610   3620      1
  3737   3621   3622      1
  3738   3621   3625      1
  3739   3621   3626      1
  3740   3622   3623      1
  3741   3623   3624      1
  3742   3623   3627      1
  3743   3624   3625      1
  3744   3624   3628      1
  3745   3625   3629      1
  3746   3626   3630      1
  3747   3627   3631      1
  3748   3632   3636      1
  3749   3632   3637      1
  3750   3634   3635      1
  3751   3635   3636      1
  3752   3635   3639      1
  3753   3636   3640      1
  3754   3637   3641      1
  3755   3638   3642      1
  3756   3643   3644      1
  3757   3643   3647      1
  3758   3643   3648      1
  3759   3644   3645      1
  3760   3645   3646      1
  3761   3645   3649      1
  3762   3646   3647      1
  3763   3646   3650      1
  3764   3647   3651      1
  3765   3648   3652      1
  3766   3649   3653      1
  3767   3654   3655      1
  3768   3654   3658      1
  3769   3654   3659      1
  3770   3656   3657      1
  3771   3656   3660      1
  3772   3657   3661      1
  3773   3659   3663      1
  3774   3660   3664      1
  3775   3665   3666      1
  3776   3666   3667      1
  3777   3667   3668      1
  3778   3667   3671      1
  3779   3668   3672      1
  3780   3669   3673      1
  3781   3670   3674      1
  3782   3671   3675      1
  3783   3676   3677      1
  3784   3676   3683      1
  3785   3676   3686      1
  3786   3676   3689      1
  3787   3677   3678      1
  3788   3677   3712      1
  3789   3678   3679      1
  3790   3678   3713      1
  3791   3679   3684      1
  3792   3679   3687      1
  3793   3679   3689      1
  3794   3680   3681      1
  3795   3680   3684      1
  3796   3680   3688      1
  3797   3681   3682      1
  3798   3682   3683      1
  3799   3682   3685      1
  3800   3683   3684      1
  3801   3683   3714      1
  3802   3684   3715      1
  3803   3685   3693      1
  3804   3685   3716      1
  3805   3686   3704      1
  3806   3686   3717      1
  3807   3686   3718      1
  3808   3687   3705      1
  3809   3687   3719      1
  3810   3687   3720      1
  3811   3688   3696      1
  3812   3688   3721      1
  3813   3690   3691      1
  3814   3690   4511      1
  3815   3691   3692      1
  3816   3691   3722      1
  3817   3692   3693      1
  3818   3692   3723      1
  3819   3693   3694      1
  3820   3694   4510      1
  3821   3695   3696      1
  3822   3695   3699      1
  3823   3696   3697      1
  3824   3697   3698      1
  3825   3697   3724      1
  3826   3698   3699      1
  3827   3698   3725      1
  3828   3699   3711      1
  3829   3700   3701      1
  3830   3700   3704      1
  3831   3701   3702      1
  3832   3701   3710      1
  3833   3702   3703      1
  3834   3702   3726      1
  3835   3703   3704      1
  3836   3703   3727      1
  3837   3705   3706      1
  3838   3705   3709      1
  3839   3706   3707      1
  3840   3706   3728      1
  3841   3707   3708      1
  3842   3707   3729      1
  3843   3708   3709      1
  3844   3708   3749      1
  3845   3708   3780      1
  3846   3710   3730      1
  3847   3710   3731      1
  3848   3711   3732      1
  3849   3711   3733      1
  3850   3734   3735      1
  3851   3734   3741      1
  3852   3734   3744      1
  3853   3734   3747      1
  3854   3735   3736      1
  3855   3735   3770      1
  3856   3736   3737      1
  3857   3736   3771      1
  3858   3737   3742      1
  3859   3737   3745      1
  3860   3737   3747      1
  3861   3738   3739      1
  3862   3738   3742      1
  3863   3738   3746      1
  3864   3739   3740      1
  3865   3740   3741      1
  3866   3740   3743      1
  3867   3741   3742      1
  3868   3741   3772      1
  3869   3742   3773      1
  3870   3743   3751      1
  3871   3743   3774      1
  3872   3744   3762      1
  3873   3744   3775      1
  3874   3744   3776      1
  3875   3745   3763      1
  3876   3745   3777      1
  3877   3745   3778      1
  3878   3746   3754      1
  3879   3746   3779      1
  3880   3748   3749      1
  3881   3748   3752      1
  3882   3749   3750      1
  3883   3750   3751      1
  3884   3750   3781      1
  3885   3751   3752      1
  3886   3753   3754      1
  3887   3753   3757      1
  3888   3754   3755      1
  3889   3755   3756      1
  3890   3755   3782      1
  3891   3756   3757      1
  3892   3756   3783      1
  3893   3757   3769      1
  3894   3758   3759      1
  3895   3758   3762      1
  3896   3759   3760      1
  3897   3759   3768      1
  3898   3760   3761      1
  3899   3760   3784      1
  3900   3761   3762      1
  3901   3761   3785      1
  3902   3763   3764      1
  3903   3763   3767      1
  3904   3764   3765      1
  3905   3764   3786      1
  3906   3765   3766      1
  3907   3765   3787      1
  3908   3768   3788      1
  3909   3768   3789      1
  3910   3769   3790      1
  3911   3769   3791      1
  3912   3792   3793      1
  3913   3792   3799      1
  3914   3792   3802      1
  3915   3792   3805      1
  3916   3793   3794      1
  3917   3793   3828      1
  3918   3794   3795      1
  3919   3794   3829      1
  3920   3795   3800      1
  3921   3795   3803      1
  3922   3796   3797      1
  3923   3796   3800      1
  3924   3796   3804      1
  3925   3797   3798      1
  3926   3798   3799      1
  3927   3798   3801      1
  3928   3799   3800      1
  3929   3799   3830      1
  3930   3800   3831      1
  3931   3801   3809      1
  3932   3801   3832      1
  3933   3802   3820      1
  3934   3802   3833      1
  3935   3802   3834      1
  3936   3803   3821      1
  3937   3803   3835      1
  3938   3803   3836      1
  3939   3804   3812      1
  3940   3804   3837      1
  3941   3805   3906      1
  3942   3806   3807      1
  3943   3806   3810      1
  3944   3806   3827      1
  3945   3807   3808      1
  3946   3807   3838      1
  3947   3808   3809      1
  3948   3808   3839      1
  3949   3809   3810      1
  3950   3811   3812      1
  3951   3812   3813      1
  3952   3813   3814      1
  3953   3813   3840      1
  3954   3814   3815      1
  3955   3814   3841      1
  3956   3816   3820      1
  3957   3817   3818      1
  3958   3817   4613      1
  3959   3818   3819      1
  3960   3818   3842      1
  3961   3819   3820      1
  3962   3819   3843      1
  3963   3821   3822      1
  3964   3821   3885      1
  3965   3822   3844      1
  3966   3822   3885      1
  3967   3823   3824      1
  3968   3823   3864      1
  3969   3823   3885      1
  3970   3824   3825      1
  3971   3824   3826      1
  3972   3825   3907      1
  3973   3826   3846      1
  3974   3826   3847      1
  3975   3827   3848      1
  3976   3827   3849      1
  3977   3845   3863      1
  3978   3850   3851      1
  3979   3850   3857      1
  3980   3850   3860      1
  3981   3851   3852      1
  3982   3851   3886      1
  3983   3852   3853      1
  3984   3852   3887      1
  3985   3853   3858      1
  3986   3853   3861      1
  3987   3854   3855      1
  3988   3854   3858      1
  3989   3854   3862      1
  3990   3855   3856      1
  3991   3856   3857      1
  3992   3856   3859      1
  3993   3857   3858      1
  3994   3857   3888      1
  3995   3858   3889      1
  3996   3859   3867      1
  3997   3859   3890      1
  3998   3860   3878      1
  3999   3860   3891      1
  4000   3860   3892      1
  4001   3861   3879      1
  4002   3861   3893      1
  4003   3861   3894      1
  4004   3862   3870      1
  4005   3862   3895      1
  4006   3863   3877      1
  4007   3864   3865      1
  4008   3864   3868      1
  4009   3865   3866      1
  4010   3865   3896      1
  4011   3866   3867      1
  4012   3866   3897      1
  4013   3867   3868      1
  4014   3869   3870      1
  4015   3869   3873      1
  4016   3870   3871      1
  4017   3871   3872      1
  4018   3871   3898      1
  4019   3872   3873      1
  4020   3872   3899      1
  4021   3874   3878      1
  4022   3875   3876      1
  4023   3876   3877      1
  4024   3876   3900      1
  4025   3877   3878      1
  4026   3877   3901      1
  4027   3879   3880      1
  4028   3879   3883      1
  4029   3880   3881      1
  4030   3880   3902      1
  4031   3881   3882      1
  4032   3881   3903      1
  4033   3882   3883      1
  4034   3882   3884      1
  4035   3884   3904      1
  4036   3884   3905      1
  4037   3908   3909      1
  4038   3908   3914      1
  4039   3908   3921      1
  4040   3909   3910      1
  4041   3909   3927      1
  4042   3910   3911      1
  4043   3910   3928      1
  4044   3911   3912      1
  4045   3911   3913      1
  4046   3912   3915      1
  4047   3912   3929      1
  4048   3912   3930      1
  4049   3915   3916      1
  4050   3915   3919      1
  4051   3916   3917      1
  4052   3916   3931      1
  4053   3917   3918      1
  4054   3917   3932      1
  4055   3918   3919      1
  4056   3918   3920      1
  4057   3920   3933      1
  4058   3920   3934      1
  4059   3921   3925      1
  4060   3921   3935      1
  4061   3921   3936      1
  4062   3922   3923      1
  4063   3923   3924      1
  4064   3923   3937      1
  4065   3924   3925      1
  4066   3924   3938      1
  4067   3925   3926      1
  4068   3939   3940      1
  4069   3939   3945      1
  4070   3939   3952      1
  4071   3940   3941      1
  4072   3940   3958      1
  4073   3941   3942      1
  4074   3941   3959      1
  4075   3942   3943      1
  4076   3942   3944      1
  4077   3943   3946      1
  4078   3943   3960      1
  4079   3943   3961      1
  4080   3946   3947      1
  4081   3946   3950      1
  4082   3947   3948      1
  4083   3947   3962      1
  4084   3948   3949      1
  4085   3948   3963      1
  4086   3949   3950      1
  4087   3949   3951      1
  4088   3951   3964      1
  4089   3951   3965      1
  4090   3952   3956      1
  4091   3952   3966      1
  4092   3952   3967      1
  4093   3953   3954      1
  4094   3954   3955      1
  4095   3954   3968      1
  4096   3955   3956      1
  4097   3955   3969      1
  4098   3956   3957      1
  4099   3970   3971      1
  4100   3970   3975      1
  4101   3971   3972      1
  4102   3972   3981      1
  4103   3973   3974      1
  4104   3973   3988      1
  4105   3974   3989      1
  4106   3975   3982      1
  4107   3975   3990      1
  4108   3976   3977      1
  4109   3976   3981      1
  4110   3978   3979      1
  4111   3979   3980      1
  4112   3979   3991      1
  4113   3980   3992      1
  4114   3981   3993      1
  4115   3982   3983      1
  4116   3983   3984      1
  4117   3983   3994      1
  4118   3984   3995      1
  4119   3985   3986      1
  4120   3985   3987      1
  4121   3987   3996      1
  4122   3987   3997      1
  4123   3998   3999      1
  4124   3998   4002      1
  4125   3998   4003      1
  4126   3999   4000      1
  4127   4000   4001      1
  4128   4000   4009      1
  4129   4001   4002      1
  4130   4001   4016      1
  4131   4002   4017      1
  4132   4003   4010      1
  4133   4003   4018      1
  4134   4004   4005      1
  4135   4005   4279      1
  4136   4006   4007      1
  4137   4007   4008      1
  4138   4007   4019      1
  4139   4008   4020      1
  4140   4010   4014      1
  4141   4011   4012      1
  4142   4011   4022      1
  4143   4012   4013      1
  4144   4012   4023      1
  4145   4013   4015      1
  4146   4015   4024      1
  4147   4026   4027      1
  4148   4026   4030      1
  4149   4026   4031      1
  4150   4027   4028      1
  4151   4028   4029      1
  4152   4028   4032      1
  4153   4029   4030      1
  4154   4029   4033      1
  4155   4030   4034      1
  4156   4031   4035      1
  4157   4032   4036      1
  4158   4037   4038      1
  4159   4037   4041      1
  4160   4037   4042      1
  4161   4038   4039      1
  4162   4039   4040      1
  4163   4039   4043      1
  4164   4040   4041      1
  4165   4040   4044      1
  4166   4041   4045      1
  4167   4042   4046      1
  4168   4048   4055      1
  4169   4048   4058      1
  4170   4048   4061      1
  4171   4049   4050      1
  4172   4049   4084      1
  4173   4051   4056      1
  4174   4051   4061      1
  4175   4052   4053      1
  4176   4052   4056      1
  4177   4053   4054      1
  4178   4054   4055      1
  4179   4054   4057      1
  4180   4055   4056      1
  4181   4057   4065      1
  4182   4057   4088      1
  4183   4058   4076      1
  4184   4058   4089      1
  4185   4058   4090      1
  4186   4059   4077      1
  4187   4059   4091      1
  4188   4059   4092      1
  4189   4060   4068      1
  4190   4060   4093      1
  4191   4062   4066      1
  4192   4063   4094      1
  4193   4064   4065      1
  4194   4065   4066      1
  4195   4067   4071      1
  4196   4068   4069      1
  4197   4069   4070      1
  4198   4069   4096      1
  4199   4070   4097      1
  4200   4071   4083      1
  4201   4072   4073      1
  4202   4072   4076      1
  4203   4073   4074      1
  4204   4074   4075      1
  4205   4074   4098      1
  4206   4075   4076      1
  4207   4075   4099      1
  4208   4077   4078      1
  4209   4077   4081      1
  4210   4078   4079      1
  4211   4078   4100      1
  4212   4079   4080      1
  4213   4080   4081      1
  4214   4080   4152      1
  4215   4082   4102      1
  4216   4082   4103      1
  4217   4083   4104      1
  4218   4083   4105      1
  4219   4106   4107      1
  4220   4106   4116      1
  4221   4106   4119      1
  4222   4107   4108      1
  4223   4107   4142      1
  4224   4108   4109      1
  4225   4108   4143      1
  4226   4109   4119      1
  4227   4110   4111      1
  4228   4110   4114      1
  4229   4110   4118      1
  4230   4111   4112      1
  4231   4112   4113      1
  4232   4112   4115      1
  4233   4113   4114      1
  4234   4113   4144      1
  4235   4114   4145      1
  4236   4115   4123      1
  4237   4115   4146      1
  4238   4116   4134      1
  4239   4116   4147      1
  4240   4116   4148      1
  4241   4117   4135      1
  4242   4117   4150      1
  4243   4118   4126      1
  4244   4118   4151      1
  4245   4120   4121      1
  4246   4121   4122      1
  4247   4122   4153      1
  4248   4123   4124      1
  4249   4125   4126      1
  4250   4125   4129      1
  4251   4126   4127      1
  4252   4127   4128      1
  4253   4127   4154      1
  4254   4128   4129      1
  4255   4128   4155      1
  4256   4129   4141      1
  4257   4130   4131      1
  4258   4130   4134      1
  4259   4131   4132      1
  4260   4131   4140      1
  4261   4132   4133      1
  4262   4132   4156      1
  4263   4133   4134      1
  4264   4133   4157      1
  4265   4135   4136      1
  4266   4135   4139      1
  4267   4136   4137      1
  4268   4136   4158      1
  4269   4137   4138      1
  4270   4137   4159      1
  4271   4139   4561      1
  4272   4140   4160      1
  4273   4140   4161      1
  4274   4141   4162      1
  4275   4141   4163      1
  4276   4164   4165      1
  4277   4164   4171      1
  4278   4164   4174      1
  4279   4164   4177      1
  4280   4165   4200      1
  4281   4166   4167      1
  4282   4166   4201      1
  4283   4167   4172      1
  4284   4167   4175      1
  4285   4168   4172      1
  4286   4168   4176      1
  4287   4169   4170      1
  4288   4170   4171      1
  4289   4170   4173      1
  4290   4171   4202      1
  4291   4172   4203      1
  4292   4173   4181      1
  4293   4173   4204      1
  4294   4174   4192      1
  4295   4174   4205      1
  4296   4174   4206      1
  4297   4175   4193      1
  4298   4175   4208      1
  4299   4176   4184      1
  4300   4176   4209      1
  4301   4177   4278      1
  4302   4178   4179      1
  4303   4178   4182      1
  4304   4178   4199      1
  4305   4179   4180      1
  4306   4179   4210      1
  4307   4180   4181      1
  4308   4180   4211      1
  4309   4181   4182      1
  4310   4183   4184      1
  4311   4183   4207      1
  4312   4184   4185      1
  4313   4185   4186      1
  4314   4185   4212      1
  4315   4186   4187      1
  4316   4186   4213      1
  4317   4188   4192      1
  4318   4189   4190      1
  4319   4191   4192      1
  4320   4193   4194      1
  4321   4193   4197      1
  4322   4193   4257      1
  4323   4194   4216      1
  4324   4194   4257      1
  4325   4195   4196      1
  4326   4195   4236      1
  4327   4195   4257      1
  4328   4196   4197      1
  4329   4196   4198      1
  4330   4198   4218      1
  4331   4198   4219      1
  4332   4199   4220      1
  4333   4199   4221      1
  4334   4217   4235      1
  4335   4222   4223      1
  4336   4222   4229      1
  4337   4222   4232      1
  4338   4222   4235      1
  4339   4223   4258      1
  4340   4224   4225      1
  4341   4224   4259      1
  4342   4225   4233      1
  4343   4226   4227      1
  4344   4226   4230      1
  4345   4226   4234      1
  4346   4227   4228      1
  4347   4228   4229      1
  4348   4228   4231      1
  4349   4229   4230      1
  4350   4229   4260      1
  4351   4230   4261      1
  4352   4231   4239      1
  4353   4231   4262      1
  4354   4232   4263      1
  4355   4232   4264      1
  4356   4233   4251      1
  4357   4233   4265      1
  4358   4233   4266      1
  4359   4234   4267      1
  4360   4236   4237      1
  4361   4236   4240      1
  4362   4237   4238      1
  4363   4237   4268      1
  4364   4238   4239      1
  4365   4238   4269      1
  4366   4239   4240      1
  4367   4241   4242      1
  4368   4241   4245      1
  4369   4242   4243      1
  4370   4243   4244      1
  4371   4243   4270      1
  4372   4244   4245      1
  4373   4244   4271      1
  4374   4246   4247      1
  4375   4246   4250      1
  4376   4247   4248      1
  4377   4248   4249      1
  4378   4248   4272      1
  4379   4249   4250      1
  4380   4249   4273      1
  4381   4251   4255      1
  4382   4252   4253      1
  4383   4253   4254      1
  4384   4253   4275      1
  4385   4254   4256      1
  4386   4256   4276      1
  4387   4256   4277      1
  4388   4280   4281      1
  4389   4280   4286      1
  4390   4280   4293      1
  4391   4281   4282      1
  4392   4281   4299      1
  4393   4282   4283      1
  4394   4282   4300      1
  4395   4283   4284      1
  4396   4283   4285      1
  4397   4284   4287      1
  4398   4284   4301      1
  4399   4284   4302      1
  4400   4287   4288      1
  4401   4287   4291      1
  4402   4288   4289      1
  4403   4288   4303      1
  4404   4289   4290      1
  4405   4289   4304      1
  4406   4290   4291      1
  4407   4290   4292      1
  4408   4292   4305      1
  4409   4292   4306      1
  4410   4293   4297      1
  4411   4293   4307      1
  4412   4293   4308      1
  4413   4294   4295      1
  4414   4295   4296      1
  4415   4295   4309      1
  4416   4296   4297      1
  4417   4296   4310      1
  4418   4297   4298      1
  4419   4311   4312      1
  4420   4311   4317      1
  4421   4311   4324      1
  4422   4312   4313      1
  4423   4312   4330      1
  4424   4313   4314      1
  4425   4313   4331      1
  4426   4314   4315      1
  4427   4314   4316      1
  4428   4315   4318      1
  4429   4315   4332      1
  4430   4315   4333      1
  4431   4318   4319      1
  4432   4318   4322      1
  4433   4319   4320      1
  4434   4319   4334      1
  4435   4320   4321      1
  4436   4320   4335      1
  4437   4321   4322      1
  4438   4321   4323      1
  4439   4323   4336      1
  4440   4323   4337      1
  4441   4324   4328      1
  4442   4324   4338      1
  4443   4324   4339      1
  4444   4325   4326      1
  4445   4326   4327      1
  4446   4326   4340      1
  4447   4327   4328      1
  4448   4327   4341      1
  4449   4328   4329      1
  4450   4342   4346      1
  4451   4342   4347      1
  4452   4343   4344      1
  4453   4344   4345      1
  4454   4344   4353      1
  4455   4345   4360      1
  4456   4346   4361      1
  4457   4347   4354      1
  4458   4347   4362      1
  4459   4348   4349      1
  4460   4348   4352      1
  4461   4348   4353      1
  4462   4349   4350      1
  4463   4350   4351      1
  4464   4351   4352      1
  4465   4351   4363      1
  4466   4352   4364      1
  4467   4353   4365      1
  4468   4354   4355      1
  4469   4354   4358      1
  4470   4355   4356      1
  4471   4355   4366      1
  4472   4356   4357      1
  4473   4356   4367      1
  4474   4357   4358      1
  4475   4357   4359      1
  4476   4359   4368      1
  4477   4359   4369      1
  4478   4370   4371      1
  4479   4370   4374      1
  4480   4370   4375      1
  4481   4371   4372      1
  4482   4372   4373      1
  4483   4372   4381      1
  4484   4373   4374      1
  4485   4373   4388      1
  4486   4374   4389      1
  4487   4375   4382      1
  4488   4375   4390      1
  4489   4376   4377      1
  4490   4376   4380      1
  4491   4377   4651      1
  4492   4378   4379      1
  4493   4379   4380      1
  4494   4379   4391      1
  4495   4382   4383      1
  4496   4382   4386      1
  4497   4383   4384      1
  4498   4383   4394      1
  4499   4384   4385      1
  4500   4384   4395      1
  4501   4385   4386      1
  4502   4385   4387      1
  4503   4387   4396      1
  4504   4387   4397      1
  4505   4398   4399      1
  4506   4398   4402      1
  4507   4398   4403      1
  4508   4399   4400      1
  4509   4400   4401      1
  4510   4400   4404      1
  4511   4401   4402      1
  4512   4401   4405      1
  4513   4402   4406      1
  4514   4403   4407      1
  4515   4404   4408      1
  4516   4409   4410      1
  4517   4409   4413      1
  4518   4409   4414      1
  4519   4410   4411      1
  4520   4411   4412      1
  4521   4411   4415      1
  4522   4412   4413      1
  4523   4412   4416      1
  4524   4413   4417      1
  4525   4414   4418      1
  4526   4415   4419      1
  4527   4420   4421      1
  4528   4420   4427      1
  4529   4420   4430      1
  4530   4420   4433      1
  4531   4421   4422      1
  4532   4421   4456      1
  4533   4422   4423      1
  4534   4422   4457      1
  4535   4423   4428      1
  4536   4423   4431      1
  4537   4423   4433      1
  4538   4424   4425      1
  4539   4424   4428      1
  4540   4424   4432      1
  4541   4425   4426      1
  4542   4426   4427      1
  4543   4426   4429      1
  4544   4427   4428      1
  4545   4427   4458      1
  4546   4428   4459      1
  4547   4429   4437      1
  4548   4429   4460      1
  4549   4430   4448      1
  4550   4430   4461      1
  4551   4430   4462      1
  4552   4431   4449      1
  4553   4431   4463      1
  4554   4431   4464      1
  4555   4432   4440      1
  4556   4432   4465      1
  4557   4434   4435      1
  4558   4435   4436      1
  4559   4435   4466      1
  4560   4436   4437      1
  4561   4436   4467      1
  4562   4437   4438      1
  4563   4439   4440      1
  4564   4439   4443      1
  4565   4440   4441      1
  4566   4441   4442      1
  4567   4441   4468      1
  4568   4442   4443      1
  4569   4442   4469      1
  4570   4443   4455      1
  4571   4444   4445      1
  4572   4444   4448      1
  4573   4445   4446      1
  4574   4445   4454      1
  4575   4446   4447      1
  4576   4446   4470      1
  4577   4447   4448      1
  4578   4447   4471      1
  4579   4449   4450      1
  4580   4449   4453      1
  4581   4450   4451      1
  4582   4450   4472      1
  4583   4451   4452      1
  4584   4451   4473      1
  4585   4452   4453      1
  4586   4452   4493      1
  4587   4452   4524      1
  4588   4454   4475      1
  4589   4455   4476      1
  4590   4455   4477      1
  4591   4478   4479      1
  4592   4478   4485      1
  4593   4478   4488      1
  4594   4478   4491      1
  4595   4479   4480      1
  4596   4479   4514      1
  4597   4480   4481      1
  4598   4480   4515      1
  4599   4481   4486      1
  4600   4481   4489      1
  4601   4481   4491      1
  4602   4482   4483      1
  4603   4482   4486      1
  4604   4482   4490      1
  4605   4483   4484      1
  4606   4484   4485      1
  4607   4484   4487      1
  4608   4485   4486      1
  4609   4485   4516      1
  4610   4486   4517      1
  4611   4487   4495      1
  4612   4487   4518      1
  4613   4488   4506      1
  4614   4488   4519      1
  4615   4488   4520      1
  4616   4489   4507      1
  4617   4489   4521      1
  4618   4489   4522      1
  4619   4490   4498      1
  4620   4490   4523      1
  4621   4492   4493      1
  4622   4492   4496      1
  4623   4493   4494      1
  4624   4494   4495      1
  4625   4494   4525      1
  4626   4495   4496      1
  4627   4497   4498      1
  4628   4497   4501      1
  4629   4498   4499      1
  4630   4499   4500      1
  4631   4499   4526      1
  4632   4500   4501      1
  4633   4500   4527      1
  4634   4501   4513      1
  4635   4502   4503      1
  4636   4502   4506      1
  4637   4503   4504      1
  4638   4503   4512      1
  4639   4504   4505      1
  4640   4504   4528      1
  4641   4505   4506      1
  4642   4505   4529      1
  4643   4507   4508      1
  4644   4507   4511      1
  4645   4508   4509      1
  4646   4508   4530      1
  4647   4509   4510      1
  4648   4509   4531      1
  4649   4512   4532      1
  4650   4512   4533      1
  4651   4513   4534      1
  4652   4513   4535      1
  4653   4536   4537      1
  4654   4536   4543      1
  4655   4536   4546      1
  4656   4536   4549      1
  4657   4537   4538      1
  4658   4537   4572      1
  4659   4538   4539      1
  4660   4538   4573      1
  4661   4539   4544      1
  4662   4539   4547      1
  4663   4540   4541      1
  4664   4540   4544      1
  4665   4540   4548      1
  4666   4541   4542      1
  4667   4542   4543      1
  4668   4542   4545      1
  4669   4543   4544      1
  4670   4543   4574      1
  4671   4544   4575      1
  4672   4545   4553      1
  4673   4545   4576      1
  4674   4546   4564      1
  4675   4546   4577      1
  4676   4546   4578      1
  4677   4547   4565      1
  4678   4547   4580      1
  4679   4548   4556      1
  4680   4548   4581      1
  4681   4549   4650      1
  4682   4550   4551      1
  4683   4550   4554      1
  4684   4550   4571      1
  4685   4551   4552      1
  4686   4551   4582      1
  4687   4552   4553      1
  4688   4552   4583      1
  4689   4553   4554      1
  4690   4555   4556      1
  4691   4555   4579      1
  4692   4556   4557      1
  4693   4557   4558      1
  4694   4557   4584      1
  4695   4558   4559      1
  4696   4558   4585      1
  4697   4560   4564      1
  4698   4562   4563      1
  4699   4562   4586      1
  4700   4563   4564      1
  4701   4563   4587      1
  4702   4565   4566      1
  4703   4565   4629      1
  4704   4566   4588      1
  4705   4566   4629      1
  4706   4567   4568      1
  4707   4567   4608      1
  4708   4567   4629      1
  4709   4568   4569      1
  4710   4568   4570      1
  4711   4569   4570      1
  4712   4570   4590      1
  4713   4570   4591      1
  4714   4571   4592      1
  4715   4571   4593      1
  4716   4589   4607      1
  4717   4594   4595      1
  4718   4594   4601      1
  4719   4594   4604      1
  4720   4594   4607      1
  4721   4595   4596      1
  4722   4595   4630      1
  4723   4596   4597      1
  4724   4596   4631      1
  4725   4597   4602      1
  4726   4597   4605      1
  4727   4598   4599      1
  4728   4598   4602      1
  4729   4598   4606      1
  4730   4599   4600      1
  4731   4600   4601      1
  4732   4600   4603      1
  4733   4601   4602      1
  4734   4601   4632      1
  4735   4602   4633      1
  4736   4603   4611      1
  4737   4603   4634      1
  4738   4604   4622      1
  4739   4604   4635      1
  4740   4604   4636      1
  4741   4605   4623      1
  4742   4605   4637      1
  4743   4605   4638      1
  4744   4606   4614      1
  4745   4606   4639      1
  4746   4608   4609      1
  4747   4608   4612      1
  4748   4609   4610      1
  4749   4609   4640      1
  4750   4610   4611      1
  4751   4610   4641      1
  4752   4611   4612      1
  4753   4613   4614      1
  4754   4614   4615      1
  4755   4615   4616      1
  4756   4615   4642      1
  4757   4616   4617      1
  4758   4616   4643      1
  4759   4618   4622      1
  4760   4619   4620      1
  4761   4620   4644      1
  4762   4621   4622      1
  4763   4621   4645      1
  4764   4623   4624      1
  4765   4623   4627      1
  4766   4624   4625      1
  4767   4624   4646      1
  4768   4625   4626      1
  4769   4626   4627      1
  4770   4626   4628      1
  4771   4628   4649      1
  4772   4652   4653     du
  4773   4653   4654     du
  4774   4654   4655     du
  4775   4655   4652     du
  4776   4656   4657     du
  4777   4657   4658     du
  4778   4658   4659     du
  4779   4659   4656     du
  4780   4655   4659     du
  4781   4656   4652     du
  4782   4654   4658     du
  4783   4657   4653     du
