@<TRIPOS>MOLECULE
LAMMPS data file via write_data, version 29 Oct 2020, timestep = 1000 > lmp2SYBYLmol2 v3.4 / 25 September 2024 w/remove_PBC_bonds=True comments=
  4714 4808    0    0    0
SMALL
NO_CHARGES
****
Energy = 0

@<TRIPOS>ATOM
      1 C           15.6830   -14.8144    -7.0647 C       0      r0     0.2016
      2 C           16.7436   -14.6641    -6.0244 C       0      r0     0.0049
      3 C           18.0272   -14.6279    -6.3309 C       0      r0    -0.0188
      4 C          -18.5666   -14.4896    -7.6443 C       0      r0     0.1728
      5 C          -17.0202   -14.3709    -7.4185 C       0      r0    -0.0101
      6 O           18.2986   -14.3480    -8.7135 O       0      r0    -0.4540
      7 O           14.5995   -14.4113    -7.0111 O       0      r0    -0.4696
      8 C          -16.1707   -15.3576    -8.2272 C       5      r5     0.1375
      9 C          -16.8297   -16.2796    -9.0199 C       5      r5    -0.0040
     10 C          -15.8033   -17.0007    -9.6326 C       5      r5    -0.0218
     11 C          -14.5349   -16.4761    -9.1982 C       5      r5     0.0815
     12 O          -14.8050   -15.2288    -8.2183 O       5      r5    -0.4865
     13 C          -13.3647   -16.9394    -9.5677 C       0      r0    -0.0206
     14 C           16.0553   -15.9188    -8.0898 C       0      r0     0.0276
     15 C           12.5298    18.8068    -7.1708 C       0      r0     0.1323
     16 C           13.7410   -18.6672    -6.8571 C       0      r0    -0.0156
     17 C           14.4602   -17.5177    -7.4999 C       0      r0    -0.0090
     18 C           15.7337   -17.2357    -7.4268 C       0      r0     0.1595
     19 O           16.7456   -17.8716    -6.9011 O       0      r0    -0.4892
     20 H           16.4651   -14.5746    -4.9923 H       0      r0     0.0917
     21 H          -18.5688   -14.5192    -5.5461 H       0      r0     0.0542
     22 H          -16.7063   -13.3209    -7.5317 H       0      r0     0.0624
     23 H          -16.6408   -14.3171    -6.3753 H       0      r0     0.0412
     24 H          -17.9095   -16.3696    -9.1774 H       0      r0     0.0915
     25 H          -15.9717   -17.7278   -10.4127 H       0      r0     0.0878
     26 H          -13.3137   -17.7395   -10.3105 H       0      r0     0.0693
     27 H          -12.4443   -16.4498    -9.2185 H       0      r0     0.1287
     28 H           15.6028   -15.5454    -9.0153 H       0      r0     0.0864
     29 H           17.0029   -16.1234    -8.5200 H       0      r0     0.1026
     30 H           14.2425    18.5353    -6.1598 H       0      r0     0.1024
     31 H           13.7225   -16.9692    -8.0328 H       0      r0     0.0671
     32 C           -3.8953   -17.7311     5.7087 C       0      r0     0.2002
     33 C           -4.1980   -16.4305     6.3697 C       0      r0    -0.0005
     34 C           -5.4071   -16.0742     6.8815 C       0      r0    -0.0263
     35 C           -6.6380   -16.7732     6.5782 C       0      r0     0.1593
     36 C           -8.0120   -16.3296     7.2300 C       0      r0     0.0182
     37 O           -6.6449   -17.7746     5.9418 O       0      r0    -0.5002
     38 O           -3.2641   -17.8417     4.7284 O       0      r0    -0.5016
     39 C           -7.9341   -14.8686     7.5802 C       5      r5     0.1442
     40 C           -7.5375   -14.0049     6.5678 C       5      r5    -0.0185
     41 C           -7.6280   -12.7674     7.2005 C       5      r5    -0.0289
     42 C           -8.2751   -12.9645     8.5261 C       5      r5     0.0862
     43 O           -8.4535   -14.5279     8.7856 O       5      r5    -0.4559
     44 C           -8.5495   -12.0232     9.2577 C       0      r0    -0.0441
     45 C           -4.3790    18.9309     6.4697 C       0      r0     0.0198
     46 C           -0.6690    16.2708     7.1583 C       0      r0     0.2109
     47 C           -1.9275    16.1285     6.2989 C       0      r0    -0.0060
     48 C           -3.0588    17.0437     6.1846 C       0      r0    -0.0093
     49 C           -3.2451    18.1009     6.9640 C       0      r0     0.1517
     50 O           -2.6056    18.5753     8.0888 O       0      r0    -0.5096
     51 H           -3.4279   -15.6916     6.4873 H       0      r0     0.0818
     52 H           -5.4137   -15.1465     7.3864 H       0      r0     0.0429
     53 H           -8.9310   -16.4334     6.6110 H       0      r0     0.1064
     54 H           -8.2768   -16.9553     8.0800 H       0      r0     0.1252
     55 H           -7.1469   -14.2234     5.5060 H       0      r0     0.0454
     56 H           -7.3443   -11.8368     6.7611 H       0      r0     0.0756
     57 H           -8.3321   -11.0019     8.8748 H       0      r0     0.0353
     58 H           -8.9928   -12.1636    10.2459 H       0      r0     0.1019
     59 H           -4.9905   -18.5926     7.2199 H       0      r0     0.0911
     60 H           -5.0577    18.3462     5.8288 H       0      r0     0.0728
     61 H           -1.6147    15.3499     5.6503 H       0      r0     0.0705
     62 H           -3.7193    16.9708     5.3272 H       0      r0     0.0609
     63 C          -10.3675    -5.5792    -1.7208 C       5      r5     0.1351
     64 O          -11.6706    -5.2688    -2.2015 O       5      r5    -0.5005
     65 C          -11.5568    -3.7966    -2.0638 C       5      r5     0.1435
     66 C          -10.3155    -3.2806    -1.7038 C       5      r5    -0.0061
     67 C           -9.5775    -4.4527    -1.4858 C       5      r5    -0.0068
     68 C           -9.8968    -6.8976    -1.6951 C       0      r0    -0.0098
     69 C          -12.8197    -1.5950    -2.0854 C       5      r5     0.1507
     70 O          -13.7710    -0.8246    -2.7851 O       5      r5    -0.4618
     71 C          -13.3580     0.5805    -2.1616 C       5      r5     0.2315
     72 C          -12.2571     0.3014    -1.0965 C       5      r5     0.0056
     73 C          -11.9816    -0.9786    -1.1033 C       5      r5    -0.0103
     74 C          -12.6783    -2.9985    -2.3800 C       0      r0     0.0549
     75 C           -8.5878    -7.2444    -1.2449 C       5      r5     0.1231
     76 C           -8.2681    -8.6188    -1.2239 C       5      r5    -0.0318
     77 C           -6.9361    -8.8684    -0.8298 C       5      r5    -0.0269
     78 C           -6.5387    -7.4987    -0.6226 C       5      r5     0.1056
     79 O           -7.5935    -6.3829    -0.8256 O       5      r5    -0.4690
     80 C           -5.3184    -7.4895    -0.2634 C       0      r0    -0.0339
     81 H           -9.9030    -2.2955    -1.6432 H       0      r0     0.0686
     82 H           -8.5142    -4.4426    -1.2516 H       0      r0     0.0871
     83 H          -10.4593    -7.7049    -2.1106 H       0      r0     0.0394
     84 H          -11.7299     1.0385    -0.5084 H       0      r0     0.0984
     85 H          -11.2272    -1.4440    -0.4898 H       0      r0     0.0607
     86 H          -13.4748    -3.4384    -2.9201 H       0      r0     0.1422
     87 H           -8.9350    -9.3522    -1.5437 H       0      r0     0.0400
     88 H           -6.4330    -9.7771    -0.6448 H       0      r0     0.0740
     89 H           -4.6841    -8.4571    -0.1832 H       0      r0     0.1281
     90 H           -4.8094    -6.5800    -0.0351 H       0      r0     0.0484
     91 C           15.8689    -1.5093    -8.5825 C       5      r5     0.1676
     92 O           16.6621    -0.4240    -8.8052 O       5      r5    -0.4877
     93 C           17.7593    -0.8034    -7.6929 C       5      r5     0.0960
     94 C           17.5339    -1.9887    -7.0588 C       5      r5    -0.0191
     95 C           16.3065    -2.4275    -7.5711 C       5      r5     0.0200
     96 C           14.6107    -1.6550    -9.2865 C       0      r0     0.0172
     97 C          -17.1652    -0.2382    -6.8658 C       5      r5     0.1391
     98 O          -16.2547     0.7929    -6.6991 O       5      r5    -0.4801
     99 C          -15.1732    -0.1605    -5.9771 C       5      r5     0.1194
    100 C          -15.5287    -1.5456    -5.9086 C       5      r5     0.0045
    101 C          -16.7877    -1.5582    -6.5189 C       5      r5     0.0090
    102 C          -18.4032     0.0334    -7.4763 C       0      r0     0.0094
    103 C           13.7007    -2.6282    -8.9165 C       5      r5     0.1371
    104 C           12.4822    -2.6908    -9.6095 C       5      r5    -0.0264
    105 C           11.6071    -3.6759    -9.1106 C       5      r5    -0.0403
    106 C           12.4719    -4.1547    -8.0665 C       5      r5     0.0904
    107 O           13.9227    -3.5344    -7.8776 O       5      r5    -0.4678
    108 C           11.9421    -5.0909    -7.4483 C       0      r0    -0.0553
    109 H           18.1293    -2.5288    -6.3041 H       0      r0     0.0818
    110 H           15.8096    -3.3574    -7.2408 H       0      r0     0.1150
    111 H           14.3768    -1.0052   -10.0641 H       0      r0     0.0514
    112 H          -14.9479    -2.3984    -5.6061 H       0      r0     0.1001
    113 H          -17.3856    -2.3909    -6.6877 H       0      r0     0.0872
    114 H          -18.4488     1.0678    -7.7890 H       0      r0     0.0870
    115 H           12.1876    -1.9447   -10.3380 H       0      r0     0.0378
    116 H           10.5803    -3.9212    -9.3597 H       0      r0     0.0476
    117 H           10.9758    -5.4780    -7.6343 H       0      r0     0.0676
    118 H           12.5158    -5.4690    -6.6314 H       0      r0     0.0487
    119 C           16.5351   -14.6055    10.7045 C       0      r0     0.0056
    120 O           16.6560   -12.3299     9.1233 O       0      r0    -0.4666
    121 C           15.7446   -11.8248    10.0318 C       0      r0     0.1468
    122 C           15.2826   -12.4348    11.1966 C       0      r0    -0.0381
    123 C           15.7423   -13.7545    11.5258 C       0      r0    -0.0374
    124 C           17.2936   -15.3907     9.8929 C       0      r0     0.0092
    125 C           15.1698   -10.5418    10.0528 C       0      r0    -0.0164
    126 H           14.6837   -11.8976    11.9148 H       0      r0     0.0203
    127 H           15.4468   -14.0957    12.5117 H       0      r0     0.0420
    128 H           17.5239   -16.3743     9.5065 H       0      r0     0.1077
    129 H           14.3816   -10.3281    10.7859 H       0      r0     0.0349
    130 C          -16.7939    -8.3940     8.9792 C       5      r5     0.1379
    131 O          -15.5867    -9.0387     9.6935 O       5      r5    -0.4794
    132 C          -15.9575    -8.4790    10.9414 C       5      r5     0.1660
    133 C          -17.1488    -7.7148    10.9601 C       5      r5    -0.0142
    134 C          -17.7611    -7.6157     9.6839 C       5      r5    -0.0467
    135 C          -17.1479    -8.3847     7.7119 C       0      r0     0.1449
    136 C          -15.3681    -8.6139    12.1149 C       0      r0     0.1747
    137 H          -17.5684    -7.2298    11.8461 H       0      r0     0.1096
    138 H          -18.6380    -7.0363     9.4265 H       0      r0     0.0370
    139 H          -18.0765    -7.8734     7.5353 H       0      r0     0.0527
    140 H          -15.6763    -8.1018    13.0868 H       0      r0     0.0865
    141 C          -13.9231   -10.2773    18.6870 C       0      r0     0.0850
    142 O          -12.8829    -9.6209    17.5847 O       0      r0    -0.4536
    143 C          -12.9498   -11.0914    16.8486 C       0      r0     0.0838
    144 C          -13.5670   -12.2284    17.5011 C       0      r0    -0.0251
    145 C          -14.1416   -11.7143    18.5811 C       0      r0    -0.0336
    146 C          -14.4597    -9.5745   -17.6815 C       0      r0    -0.0429
    147 C          -12.4918   -11.5752    15.7317 C       0      r0    -0.0516
    148 H          -13.5577   -13.2420    17.1959 H       0      r0     0.0994
    149 H          -14.6872   -12.2944   -18.0204 H       0      r0     0.0630
    150 H          -14.5820    -8.7093   -17.1177 H       0      r0     0.0473
    151 H          -12.2051   -12.0760    14.8066 H       0      r0     0.0370
    152 C          -12.4165    -2.5059   -14.5916 C       5      r5     0.0990
    153 C          -13.1983    -3.7456   -14.8567 C       5      r5    -0.0142
    154 C          -12.5241    -4.5815   -14.0991 C       5      r5    -0.0191
    155 C          -11.4131    -4.0004   -13.3863 C       5      r5     0.1029
    156 C           -9.0116    -3.0057   -13.8569 C       5      r5     0.1659
    157 O           -8.9690    -1.7113   -14.1974 O       5      r5    -0.4778
    158 C          -10.0289    -1.5522   -15.4279 C       5      r5     0.0962
    159 C          -10.9930    -2.7402   -15.3881 C       5      r5    -0.0045
    160 C          -10.2442    -3.7541   -14.3275 C       5      r5     0.0199
    161 C          -10.0796    -0.4378   -15.9373 C       0      r0     0.0277
    162 C          -13.1874    -1.3283   -15.2386 C       0      r0    -0.0028
    163 C          -11.0021    -4.8922   -12.2351 C       0      r0     0.0073
    164 C           -7.9936    -3.5696   -13.2077 C       0      r0     0.0150
    165 O          -11.8535    -2.4928   -13.1396 O       5      r5    -0.5079
    166 C          -12.9475    -0.8212    18.1430 C       0      r0     0.0314
    167 C          -11.8974    -1.6847    18.3935 C       0      r0    -0.0222
    168 C          -11.0459    -1.5006   -17.8501 C       0      r0    -0.0223
    169 C          -10.9698    -0.4484   -17.0275 C       0      r0     0.1144
    170 O          -11.7073     0.9282   -17.1840 O       0      r0    -0.4631
    171 O           -8.8110    -5.9482   -13.2405 O       5      r5    -0.4866
    172 C           -7.9056    -4.9553   -12.7411 C       5      r5     0.1194
    173 C           -6.8912    -5.3054   -11.8763 C       5      r5    -0.0119
    174 C           -7.1498    -6.6213   -11.5529 C       5      r5    -0.0083
    175 C           -8.3647    -7.0526   -12.2588 C       5      r5     0.1096
    176 O          -15.4512    -0.3164   -14.8548 O       5      r5    -0.4724
    177 C          -16.6282    -0.5540   -13.7012 C       5      r5     0.0917
    178 C          -15.8850    -1.3635   -12.7380 C       5      r5    -0.0188
    179 C          -14.6198    -1.7335   -13.2009 C       5      r5    -0.0050
    180 C          -14.4765    -1.1233   -14.4015 C       5      r5     0.1540
    181 C          -12.1134    -5.0330   -11.1456 C       5      r5     0.1546
    182 C          -12.9714    -6.1252   -11.3118 C       5      r5    -0.0368
    183 C          -14.0386    -5.8817   -10.5507 C       5      r5    -0.0534
    184 C          -13.7604    -4.6219    -9.7734 C       5      r5     0.0816
    185 O          -12.3324    -4.1182   -10.2232 O       5      r5    -0.4805
    186 C          -17.7802    -0.1927   -13.6310 C       0      r0    -0.0390
    187 C           -8.8815    -8.2230   -12.0677 C       0      r0    -0.0433
    188 H          -14.0367    -3.8745   -15.4884 H       0      r0     0.1148
    189 H          -12.7288    -5.6270   -14.0628 H       0      r0     0.0564
    190 H          -11.2636    -3.2055   -16.3208 H       0      r0     0.0461
    191 H          -10.0023    -4.6543   -14.7702 H       0      r0     0.0676
    192 H           -9.3717     0.3503   -15.6801 H       0      r0     0.0992
    193 H          -12.6720    -0.3678   -15.5756 H       0      r0     0.1078
    194 H          -13.4883    -1.5481   -16.2359 H       0      r0     0.0775
    195 H          -10.7013    -5.8972   -12.6737 H       0      r0     0.0981
    196 H          -10.0350    -4.5301   -11.8022 H       0      r0     0.1039
    197 H           -7.0645    -2.9376   -13.0404 H       0      r0     0.0603
    198 H          -11.6496    -2.5107    17.7683 H       0      r0     0.0483
    199 H          -10.4422    -2.3297   -17.5791 H       0      r0     0.0318
    200 H           -6.1010    -4.7027   -11.5295 H       0      r0     0.0515
    201 H           -6.5342    -7.1899   -10.8777 H       0      r0     0.0628
    202 H          -16.3546    -1.6518   -11.7992 H       0      r0     0.0971
    203 H          -13.9476    -2.4191   -12.6238 H       0      r0     0.0957
    204 H          -12.9024    -6.9264   -12.0376 H       0      r0     0.0453
    205 H          -14.8685    -6.5482   -10.3986 H       0      r0     0.0263
    206 H          -18.2057    -0.4853   -12.6907 H       0      r0     0.0403
    207 H          -18.4236     0.2778   -14.3532 H       0      r0     0.0525
    208 H           -8.4689    -8.9332   -11.3923 H       0      r0     0.0257
    209 H           -9.7451    -8.5230   -12.5901 H       0      r0     0.0814
    210 C          -18.3310    -5.3773   -13.1218 C       5      r5     0.0625
    211 C          -18.0256    -6.8113   -13.4497 C       5      r5    -0.0394
    212 C           18.0745    -7.2163   -13.7549 C       5      r5    -0.0186
    213 C           16.9849    -6.1084   -13.5371 C       5      r5     0.1411
    214 C           15.9715    -5.2498   -11.2810 C       5      r5     0.1441
    215 O           16.4544    -3.9228   -11.0682 O       5      r5    -0.4769
    216 C           17.8606    -4.0537   -11.0986 C       5      r5     0.1304
    217 C           18.3692    -5.3417   -11.6369 C       5      r5    -0.0134
    218 C           16.9811    -6.1688   -11.8900 C       5      r5     0.0164
    219 C          -18.5849    -3.0591   -10.5725 C       0      r0    -0.0013
    220 C          -17.0775    -4.5130   -13.3217 C       0      r0    -0.0343
    221 C           15.6735    -6.6135   -14.2771 C       0      r0     0.0109
    222 C           14.7453    -5.7279   -10.8913 C       0      r0     0.0161
    223 O           17.4389    -4.9154   -13.9387 O       5      r5    -0.4695
    224 C          -15.1224    -2.2843    -9.8145 C       5      r5     0.1127
    225 C          -15.0104    -3.6678    -9.9051 C       5      r5    -0.0080
    226 C          -16.3485    -4.0633   -10.2591 C       5      r5    -0.0443
    227 C          -17.1977    -2.9917   -10.2591 C       5      r5     0.1028
    228 O          -16.6095    -1.7022    -9.8917 O       5      r5    -0.4710
    229 O           14.8297    -8.1181   -11.5335 O       5      r5    -0.4635
    230 C           14.3701    -7.1346   -10.7857 C       5      r5     0.1539
    231 C           13.2941    -7.2931    -9.8796 C       5      r5    -0.0220
    232 C           12.8230    -8.6220    -9.8556 C       5      r5    -0.0402
    233 C           13.6776    -9.1682   -10.8528 C       5      r5     0.0881
    234 O          -15.7395    -4.9199   -15.4452 O       5      r5    -0.4839
    235 C          -16.1249    -4.3595   -16.9585 C       5      r5     0.1027
    236 C          -17.4236    -3.7083   -16.8672 C       5      r5    -0.0042
    237 C          -17.8701    -3.8313   -15.5711 C       5      r5     0.0148
    238 C          -16.8540    -4.4373   -14.8658 C       5      r5     0.1612
    239 C           14.6259    -5.5234   -14.5057 C       0      r0     0.1431
    240 C           14.7795    -4.4438   -13.9689 C       0      r0     0.0155
    241 C           13.7345    -3.2993   -14.1284 C       0      r0    -0.0092
    242 C           12.6048    -3.3006   -14.8325 C       0      r0     0.1450
    243 O           13.4241    -5.8608   -15.4145 O       0      r0    -0.4551
    244 C          -15.4568    -4.4928   -18.0593 C       0      r0    -0.0324
    245 C           13.4497   -10.3779   -11.0035 C       0      r0    -0.0483
    246 H          -17.0733    -7.3207   -13.4012 H       0      r0     0.0388
    247 H           17.9661    -8.2362   -14.0421 H       0      r0     0.0557
    248 H          -18.3020    -5.8246   -10.8828 H       0      r0     0.0225
    249 H           16.8900    -7.1589   -11.5440 H       0      r0     0.0874
    250 H           17.9622    -2.2788   -10.3136 H       0      r0     0.1135
    251 H          -17.2138    -3.5864   -12.7953 H       0      r0     0.0347
    252 H          -16.2428    -4.9503   -12.7877 H       0      r0     0.0442
    253 H           15.9636    -7.1038   -15.2240 H       0      r0     0.1182
    254 H           15.2207    -7.4115   -13.6887 H       0      r0     0.0930
    255 H           14.1332    -4.9449   -10.4974 H       0      r0     0.0843
    256 H          -13.5630    -4.7607    -8.6795 H       0      r0     0.1325
    257 H          -16.6771    -5.0318   -10.4157 H       0      r0     0.0221
    258 H           12.8652    -6.5133    -9.3117 H       0      r0     0.0445
    259 H           11.9628    -9.0695    -9.3352 H       0      r0     0.0406
    260 H          -17.9062    -3.1539   -17.6961 H       0      r0     0.0616
    261 H           18.5127    -3.3939   -15.2205 H       0      r0     0.0931
    262 H           15.6534    -4.2160   -13.3601 H       0      r0     0.1303
    263 H           13.8541    -2.4251   -13.5250 H       0      r0     0.0565
    264 H          -15.8200    -4.1305    18.4001 H       0      r0     0.0408
    265 H          -14.5087    -4.9986   -17.9812 H       0      r0     0.0974
    266 H           12.7411   -10.9171   -10.3312 H       0      r0     0.0335
    267 H           13.9566   -11.0649   -11.6894 H       0      r0     0.0543
    268 C          -12.3344     2.7843   -11.1116 C       6      r6    -0.0295
    269 C          -12.0359     2.4122    -9.7922 C       6      r6    -0.0535
    270 C          -11.7820     1.0847    -9.3997 C       6      r6    -0.0597
    271 C          -11.9818     0.0279   -10.2764 C       6      r6    -0.0321
    272 C          -10.6036     0.7441   -12.3700 C       5      r5     0.1555
    273 O          -10.6824     1.8879   -13.2115 O       5      r5    -0.4921
    274 C          -12.0286     2.1986   -13.1591 C       5      r5     0.1461
    275 C          -12.6931     1.7234   -11.9909 C       5      r5    -0.0020
    276 C          -11.9158     0.2586   -11.7564 C       5      r5    -0.0060
    277 C          -12.8615     2.5594   -14.3199 C       0      r0     0.0085
    278 C          -12.6713     4.3147   -11.4174 C       0      r0    -0.0135
    279 C          -12.2038    -1.2761    -9.8080 C       0      r0    -0.0056
    280 C           -9.4168     0.2435   -12.0487 C       0      r0     0.0346
    281 O           -5.9633     0.1366    -6.6480 O       0      r0    -0.5696
    282 C          -16.0728     3.8892   -13.8262 C       5      r5     0.1146
    283 C          -15.9234     3.6028   -15.2555 C       5      r5    -0.0322
    284 C          -14.6023     3.1242   -15.5229 C       5      r5    -0.0241
    285 C          -14.1179     3.0976   -14.1998 C       5      r5     0.1257
    286 O          -14.8477     3.5399   -13.0360 O       5      r5    -0.4783
    287 O          -10.0948    -2.0051   -11.3704 O       0      r0    -0.5578
    288 C           -9.1667    -0.9846   -11.3664 C       0      r0     0.1558
    289 C           -7.9592    -1.1148   -10.7804 C       0      r0    -0.0027
    290 C           -7.5358    -2.2526    -9.9648 C       0      r0    -0.0176
    291 C           -8.3910    -3.2572    -9.5712 C       0      r0     0.0172
    292 O          -11.6122     6.5107   -11.6298 O       5      r5    -0.4483
    293 C           -9.9782     6.8397   -11.9425 C       5      r5     0.0992
    294 C           -9.2727     5.7302   -12.3879 C       5      r5    -0.0200
    295 C          -10.2726     4.6920   -12.1886 C       5      r5    -0.0040
    296 C          -11.4466     5.1596   -11.7704 C       5      r5     0.1403
    297 C          -12.4147    -1.6709    -8.5092 C       3      r3    -0.0163
    298 C          -12.7215    -1.4898    -7.2022 C       3      r3    -0.0436
    299 C          -11.4614    -3.0651    -6.4798 C       0      r0     0.0171
    300 C          -10.3924    -2.1191    -5.9213 C       0      r0     0.0965
    301 O           -9.8237    -2.5229    -4.4671 O       0      r0    -0.4962
    302 C           -9.9725    -1.2043    -6.5919 C       0      r0    -0.0420
    303 C          -17.1905     4.3577   -13.6257 C       0      r0    -0.0346
    304 H          -12.0068     3.1882    -9.0230 H       0      r0     0.0950
    305 H          -11.6295     0.9967    -8.3406 H       0      r0     0.0410
    306 H          -13.7950     1.6503   -11.9542 H       0      r0     0.0880
    307 H          -12.2248    -0.6466   -12.2664 H       0      r0     0.1076
    308 H          -12.4488     2.3716   -15.2901 H       0      r0     0.0916
    309 H          -13.5798     4.5209   -12.1492 H       0      r0     0.1311
    310 H          -13.0993     4.5896   -10.4566 H       0      r0     0.0815
    311 H          -10.5451    -2.1622   -12.3317 H       0      r0     0.3733
    312 H          -12.1217    -2.0384   -10.5253 H       0      r0     0.1634
    313 H           -8.5266     0.7137   -12.3294 H       0      r0     0.0697
    314 H          -16.5365     4.0070   -16.0434 H       0      r0     0.0310
    315 H          -14.1187     2.8604   -16.4594 H       0      r0     0.0570
    316 H           -7.3071    -0.2614   -10.9982 H       0      r0     0.0689
    317 H           -6.4564    -2.2333    -9.7365 H       0      r0     0.0715
    318 H           -8.2976     5.6741   -12.8427 H       0      r0     0.0907
    319 H          -10.1233     3.6323   -12.4000 H       0      r0     0.1059
    320 H          -12.8059    -0.6801    -6.5318 H       0      r0     0.0571
    321 H          -15.8076    -8.8653    -6.1130 H       0      r0     0.3209
    322 H          -10.3116    -1.0817    -7.6284 H       0      r0     0.0442
    323 H           -9.1710    -0.5802    -6.2358 H       0      r0     0.0649
    324 H          -17.8702     4.4808   -14.4266 H       0      r0     0.0284
    325 H          -17.4677     4.7185   -12.5849 H       0      r0     0.1341
    326 C          -15.7410    -7.2644    -7.2392 C       6      r6     0.1053
    327 C          -16.5756    -6.8738    -8.4652 C       6      r6    -0.0487
    328 C          -16.8254    -7.6398    -9.4953 C       6      r6    -0.0658
    329 C          -16.2317    -8.8883    -9.1677 C       6      r6    -0.0236
    330 C          -14.4419   -10.2031    -7.9711 C       5      r5     0.1486
    331 O          -14.0011    -9.9099    -6.6820 O       5      r5    -0.4933
    332 C          -13.6761    -8.5715    -6.7032 C       5      r5     0.1456
    333 C          -14.4198    -7.8183    -7.7557 C       5      r5    -0.0071
    334 C          -14.8359    -9.0329    -8.7790 C       5      r5    -0.0066
    335 C          -12.6406    -7.9810    -5.9818 C       0      r0    -0.0073
    336 C          -15.4206    -6.0120    -6.4770 C       0      r0     0.0165
    337 C          -17.0217   -10.1585    -9.5897 C       0      r0    -0.0125
    338 C          -14.3855   -11.4681    -8.5210 C       0      r0     0.0094
    339 O          -16.4620    -8.1512    -6.3520 O       0      r0    -0.5912
    340 C          -11.7573    -4.4851    -6.3078 C       5      r5     0.1524
    341 C          -10.9232    -5.0379    -5.2782 C       5      r5     0.0143
    342 C          -11.1818    -6.4239    -5.1473 C       5      r5    -0.0186
    343 C          -12.2088    -6.6294    -6.0749 C       5      r5     0.1163
    344 O          -12.6068    -5.4782    -6.9170 O       5      r5    -0.4955
    345 O          -14.6283   -10.8461   -10.9806 O       5      r5    -0.5080
    346 C          -14.5258   -11.7505    -9.9258 C       5      r5     0.1323
    347 C          -14.5464   -13.0949   -10.2203 C       5      r5    -0.0015
    348 C          -14.9053   -13.3101   -11.5756 C       5      r5    -0.0076
    349 C          -14.9860   -12.0188   -12.0627 C       5      r5     0.1106
    350 O          -16.6027    -4.3043    -5.4073 O       0      r0    -0.4729
    351 C           17.9097    -4.2809    -4.9628 C       0      r0     0.1452
    352 C           18.0206    -5.4055    -5.7778 C       0      r0    -0.0472
    353 C          -18.0291    -5.9089    -6.2293 C       0      r0    -0.0116
    354 C          -16.7486    -5.2777    -6.0472 C       0      r0     0.1826
    355 C          -18.4652   -10.1829    -9.0605 C       5      r5     0.1517
    356 C          -18.5898    -9.5287    -7.8181 C       5      r5    -0.0196
    357 C           17.4175    -9.7942    -7.4430 C       5      r5    -0.0346
    358 C           16.7683   -10.5490    -8.5393 C       5      r5     0.1091
    359 O           17.8820   -10.8307    -9.7224 O       5      r5    -0.4226
    360 C           15.6433   -10.9897    -8.5533 C       0      r0    -0.0160
    361 C          -12.4312    -2.8089    -7.4707 C       3      r3     0.0177
    362 H          -17.0119    -5.8806    -8.4444 H       0      r0     0.0352
    363 H          -17.4872    -7.4079   -10.3230 H       0      r0     0.0365
    364 H          -13.9578    -7.0517    -8.2868 H       0      r0     0.0513
    365 H          -14.1963    -9.0748    -9.6908 H       0      r0     0.0738
    366 H          -12.2534    -8.7502    -5.3520 H       0      r0     0.0648
    367 H          -14.8314    -6.3710    -5.6582 H       0      r0     0.1018
    368 H          -14.7209    -5.3496    -6.9624 H       0      r0     0.0911
    369 H          -17.1244   -10.3492   -10.7062 H       0      r0     0.0994
    370 H          -16.5160   -11.1201    -9.4005 H       0      r0     0.0768
    371 H          -14.1891   -12.4141    -7.9817 H       0      r0     0.0786
    372 H          -10.1323    -4.4996    -4.7793 H       0      r0     0.1155
    373 H          -10.5852    -7.1475    -4.5204 H       0      r0     0.0389
    374 H          -14.6015   -13.9691    -9.5468 H       0      r0     0.1221
    375 H          -15.0543   -14.2363   -12.0959 H       0      r0     0.0647
    376 H           17.0729    -5.9157    -5.9120 H       0      r0     0.0317
    377 H          -18.0775    -6.8554    -6.7084 H       0      r0     0.0834
    378 H          -17.8498    -8.9555    -7.2547 H       0      r0     0.1155
    379 H           16.9107    -9.4247    -6.5592 H       0      r0     0.0389
    380 H           14.9646   -10.8472    -7.7426 H       0      r0     0.0389
    381 H           15.2455   -11.6783    -9.2765 H       0      r0     0.0806
    382 H           -6.4779     0.5712    -7.4198 H       0      r0     0.2863
    383 H           -9.3766    -0.8238    -3.4753 H       0      r0     0.3199
    384 C           11.2730    16.0167    -8.9688 C       0      r0     0.2041
    385 C           12.7176    16.3167    -8.6894 C       0      r0     0.0076
    386 C           13.5464    17.2052    -9.3010 C       0      r0    -0.0127
    387 C           13.3536    17.9215   -10.5124 C       0      r0     0.1608
    388 C           14.4079    18.9162   -10.7366 C       0      r0     0.0083
    389 O           12.4711    17.7671   -11.3924 O       0      r0    -0.4868
    390 O           10.7463    14.9940    -8.7730 O       0      r0    -0.5024
    391 C           13.8399   -17.6014   -10.8604 C       5      r5     0.1531
    392 C           12.5391   -17.4460   -10.2706 C       5      r5    -0.0112
    393 C           12.2658   -16.1569   -10.3349 C       5      r5    -0.0299
    394 C           13.4271   -15.4697   -11.0027 C       5      r5     0.0874
    395 O           14.5924   -16.5749   -11.2420 O       5      r5    -0.4920
    396 C           13.4870   -14.2770   -11.2557 C       0      r0    -0.0435
    397 C           10.2871    17.1699    -9.3331 C       0      r0     0.0152
    398 C            9.3971   -17.9799    -6.1375 C       0      r0     0.0277
    399 C            8.4601   -18.8731    -6.6349 C       0      r0    -0.0111
    400 C            8.8422    18.2380    -7.7266 C       0      r0    -0.0114
    401 C           10.0894    18.1191    -8.2129 C       0      r0     0.1484
    402 O           11.2175    18.7431    -7.9108 O       0      r0    -0.4875
    403 H           12.9667    15.8275    -7.7669 H       0      r0     0.0702
    404 H           14.4193    17.3710    -8.7512 H       0      r0     0.0932
    405 H           15.2997    18.8550   -10.0714 H       0      r0     0.0719
    406 H           15.0014    18.5565   -11.6144 H       0      r0     0.1161
    407 H           11.8475   -18.1787    -9.8287 H       0      r0     0.1017
    408 H           11.3238   -15.6573    -9.9883 H       0      r0     0.1026
    409 H           12.7705   -13.5095   -11.0019 H       0      r0     0.0394
    410 H           14.3695   -13.8961   -11.7017 H       0      r0     0.0609
    411 H           10.6455    17.8237   -10.1526 H       0      r0     0.1063
    412 H            9.3583    16.7888    -9.7510 H       0      r0     0.0468
    413 H            7.5108   -18.8570    -6.1466 H       0      r0     0.0828
    414 H            8.0769    17.5922    -8.0677 H       0      r0     0.0501
    415 C            0.4577   -18.9496     7.0557 C       0      r0     0.1841
    416 C           -0.4054   -18.0872     6.5079 C       0      r0     0.0191
    417 C           -0.2029   -16.6710     6.1244 C       0      r0    -0.0176
    418 C            0.2377   -15.7444     6.9468 C       0      r0     0.1344
    419 C            0.0733   -14.3782     6.4016 C       0      r0    -0.0146
    420 O            0.7741   -15.8328     8.2030 O       0      r0    -0.5192
    421 O            0.2556    17.7582     7.3869 O       0      r0    -0.4851
    422 C           -1.2414   -13.8071     6.9985 C       5      r5     0.1301
    423 C           -1.3582   -13.9585     8.3359 C       5      r5    -0.0128
    424 C           -2.6632   -13.5683     8.6386 C       5      r5    -0.0363
    425 C           -3.2455   -13.0682     7.4096 C       5      r5     0.0821
    426 O           -2.2700   -13.2883     6.2102 O       5      r5    -0.4791
    427 C           -4.4097   -12.5703     7.3400 C       0      r0    -0.0389
    428 C            1.7736   -18.3660     7.5379 C       0      r0     0.0259
    429 C            5.9094    17.7600     7.1470 C       0      r0     0.2507
    430 C            5.0736    17.9507     8.4301 C       0      r0    -0.0052
    431 C            3.8163    18.4429     8.4549 C       0      r0    -0.0271
    432 C            3.0000    18.6209     7.2326 C       0      r0     0.1992
    433 O            3.1605    18.3977     6.1033 O       0      r0    -0.4701
    434 H           -1.3059   -18.5462     6.1412 H       0      r0     0.1176
    435 H           -0.7061   -16.3345     5.2662 H       0      r0     0.0714
    436 H            0.9321   -13.7956     6.5819 H       0      r0     0.0485
    437 H           -0.0318   -14.2218     5.2638 H       0      r0     0.0633
    438 H           -0.6726   -14.4287     9.0334 H       0      r0     0.0901
    439 H           -3.1224   -13.6915     9.5915 H       0      r0     0.0798
    440 H           -4.9764   -12.4449     8.2547 H       0      r0     0.0405
    441 H           -4.7674   -12.2598     6.3614 H       0      r0     0.1101
    442 H            1.8614   -17.3305     7.1685 H       0      r0     0.0783
    443 H            1.6455   -18.2919     8.5997 H       0      r0     0.1146
    444 H            5.6259    17.8530     9.3581 H       0      r0     0.0605
    445 H            3.4614    18.8528     9.3991 H       0      r0     0.0549
    446 C           -4.8080    17.9853    -6.4061 C       5      r5     0.1274
    447 O           -4.0838    18.7617    -5.3318 O       5      r5    -0.4773
    448 C           -2.8631    18.9259    -6.0615 C       5      r5     0.1199
    449 C           -2.9239    18.4579    -7.3903 C       5      r5    -0.0207
    450 C           -4.1795    17.8492    -7.6289 C       5      r5     0.0017
    451 C           -6.1226    17.4911    -6.1256 C       0      r0     0.0165
    452 C           -0.6816   -17.7307    -6.2130 C       5      r5     0.1122
    453 O            0.4789   -17.2899    -5.5664 O       5      r5    -0.4747
    454 C            1.1561   -16.7659    -6.8670 C       5      r5     0.1086
    455 C            0.4906   -16.9275    -8.0435 C       5      r5    -0.0205
    456 C           -0.7043   -17.6137    -7.6041 C       5      r5    -0.0451
    457 C           -1.7784   -18.2683    -5.5211 C       0      r0     0.0006
    458 C           -6.9670    16.9208    -7.0656 C       5      r5     0.1415
    459 C           -8.2576    16.4496    -6.6123 C       5      r5    -0.0039
    460 C           -9.0345    15.9647    -7.6924 C       5      r5    -0.0163
    461 C           -8.0567    16.0783    -8.7272 C       5      r5     0.1064
    462 O           -6.6347    16.7050    -8.3575 O       5      r5    -0.4670
    463 C           -8.5846    15.6192    -9.7980 C       0      r0    -0.0393
    464 H           -2.1635    18.5132    -8.1327 H       0      r0     0.0682
    465 H           -4.5895    17.3970    -8.5198 H       0      r0     0.1155
    466 H           -6.4116    17.6225    -5.1399 H       0      r0     0.0870
    467 H            0.7812   -16.5439    -8.9840 H       0      r0     0.0907
    468 H           -1.5613   -17.7350    -8.2812 H       0      r0     0.0236
    469 H           -1.6905   -18.0242    -4.4592 H       0      r0     0.0789
    470 H           -8.6826    16.5593    -5.5961 H       0      r0     0.1085
    471 H          -10.0974    15.8030    -7.6347 H       0      r0     0.0861
    472 H           -9.6121    15.2378    -9.8898 H       0      r0     0.0790
    473 H           -8.0403    15.5066   -10.7216 H       0      r0     0.0502
    474 C            1.1271   -11.2284   -12.2459 C       5      r5     0.1352
    475 O            2.3738   -10.5788   -12.8703 O       5      r5    -0.4880
    476 C            3.3355   -11.2226   -12.0023 C       5      r5     0.1143
    477 C            2.7646   -12.2166   -11.1891 C       5      r5    -0.0155
    478 C            1.3566   -12.2158   -11.3335 C       5      r5     0.0185
    479 C           -0.2387   -10.9803   -12.6476 C       0      r0     0.0119
    480 C            5.7046   -11.2531   -11.1907 C       0      r0     0.1328
    481 O            7.1028   -11.3289   -11.5265 O       0      r0    -0.4728
    482 C            7.4741   -11.3975    -8.6868 C       0      r0     0.0212
    483 C            6.0754   -11.3975    -8.7278 C       0      r0    -0.0221
    484 C            5.2611   -11.2143    -9.9214 C       0      r0    -0.0065
    485 C            4.7272   -10.9844   -12.2074 C       0      r0     0.0019
    486 C           -1.3134   -11.6027   -12.0015 C       5      r5     0.1399
    487 C           -2.4212   -11.1262   -12.6912 C       5      r5    -0.0038
    488 C           -3.4761   -11.8591   -12.0257 C       5      r5    -0.0179
    489 C           -2.9154   -12.6204   -10.9261 C       5      r5     0.1013
    490 O           -1.3068   -12.5534   -10.7958 O       5      r5    -0.4656
    491 C           -3.7962   -13.2795   -10.3628 C       0      r0    -0.0426
    492 H            3.2900   -12.8716   -10.5532 H       0      r0     0.0562
    493 H            0.6580   -12.9094   -10.8544 H       0      r0     0.1175
    494 H           -0.4122   -10.2642   -13.3928 H       0      r0     0.0656
    495 H            5.5679   -11.6196    -7.7901 H       0      r0     0.0590
    496 H            4.1897   -11.1969    -9.8837 H       0      r0     0.0735
    497 H            5.0163   -10.5836   -13.1445 H       0      r0     0.0849
    498 H           -2.5364   -10.5310   -13.5660 H       0      r0     0.1216
    499 H           -4.4760   -11.9028   -12.4237 H       0      r0     0.0940
    500 H           -4.8651   -13.2935   -10.6783 H       0      r0     0.0399
    501 H           -3.5708   -13.8374    -9.4250 H       0      r0     0.0830
    502 C            6.9806    -0.4288   -17.0209 C       5      r5     0.1584
    503 O            6.0942    -1.5251   -17.3225 O       5      r5    -0.4594
    504 C            5.3289    -1.3390   -16.0236 C       5      r5     0.1191
    505 C            5.8664    -0.2535   -15.2160 C       5      r5    -0.0357
    506 C            6.9290     0.3875   -15.7931 C       5      r5    -0.0590
    507 C            7.9671     0.0411   -17.6964 C       0      r0     0.1627
    508 C            4.2534    -2.0599   -15.6156 C       0      r0    -0.0123
    509 H            5.4628     0.1084   -14.2487 H       0      r0     0.0421
    510 H            7.4405     1.2275   -15.3746 H       0      r0     0.0198
    511 H            8.6360     0.8586   -17.3265 H       0      r0     0.0980
    512 H            3.4164    -2.3332   -15.0323 H       0      r0     0.1109
    513 C           -7.3949   -11.2676     4.2530 C       5      r5     0.0987
    514 O           -5.9996   -11.2334     4.9666 O       5      r5    -0.5011
    515 C           -6.0516    -9.8926     5.3549 C       5      r5     0.1385
    516 C           -7.1325    -9.1033     5.0077 C       5      r5    -0.0197
    517 C           -7.9998    -9.9492     4.3384 C       5      r5    -0.0275
    518 C           -7.9299   -12.2760     3.4865 C       0      r0    -0.0301
    519 C           -4.8770    -9.1219     5.8789 C       0      r0    -0.0035
    520 H           -7.4040    -8.0635     5.2089 H       0      r0     0.0734
    521 H           -8.9251    -9.7219     3.8620 H       0      r0     0.0519
    522 H           -8.6531   -12.6967     2.7999 H       0      r0     0.0753
    523 H           -5.0034    -7.9867     6.0229 H       0      r0     0.0530
    524 C            0.5091    15.9951    15.2490 C       5      r5     0.1189
    525 O           -0.8616    16.4445    15.4082 O       5      r5    -0.4758
    526 C           -0.5248    17.7077    16.1495 C       5      r5     0.1082
    527 C            0.9008    17.7207    16.5104 C       5      r5    -0.0461
    528 C            1.5477    16.7078    15.8554 C       5      r5    -0.0495
    529 C            1.0252    14.8644    14.5527 C       0      r0    -0.0239
    530 C           -1.2772    18.7856    16.4636 C       0      r0     0.0129
    531 H            1.4054    18.3904    17.1176 H       0      r0     0.0348
    532 H            2.5510    16.4915    15.7875 H       0      r0     0.0321
    533 H            2.0653    14.7161    14.4326 H       0      r0     0.0398
    534 H           -1.5629   -18.2451    16.9035 H       0      r0     0.1371
    535 C           14.5901    10.8461    12.2835 C       5      r5     0.1220
    536 O           13.6102     9.8072    12.9334 O       5      r5    -0.4634
    537 C           13.2131    10.9089    14.0175 C       5      r5     0.1082
    538 C           13.9195    12.1519    13.9232 C       5      r5    -0.0191
    539 C           14.7282    12.0952    12.7733 C       5      r5    -0.0211
    540 C           15.3254    10.5144    11.0962 C       0      r0    -0.0154
    541 C           12.2690    10.7656    14.9861 C       0      r0    -0.0217
    542 H           13.8340    13.0215    14.5842 H       0      r0     0.0946
    543 H           15.3328    12.8889    12.3847 H       0      r0     0.0494
    544 H           15.8794    11.2602    10.6233 H       0      r0     0.0507
    545 H           11.7498    11.0752    15.8396 H       0      r0     0.0601
    546 C           -4.3980    -8.4035   -15.4360 C       5      r5     0.0753
    547 C           -5.8423    -8.6408   -15.7066 C       5      r5    -0.0208
    548 C           -5.7752    -9.8764   -16.1108 C       5      r5     0.0134
    549 C           -4.4653   -10.5117   -16.1260 C       5      r5     0.1282
    550 C           -2.3252   -10.2994   -17.3992 C       5      r5     0.1664
    551 O           -1.5187    -9.3454   -16.9164 O       5      r5    -0.4718
    552 C           -2.2443    -7.9089   -16.9139 C       5      r5     0.1034
    553 C           -3.7545    -8.2353   -16.8564 C       5      r5    -0.0036
    554 C           -3.7846    -9.8806   -17.3100 C       5      r5     0.0278
    555 C           -1.5750    -6.8940   -16.8791 C       0      r0     0.0071
    556 C           -4.0809    -7.1884   -14.5281 C       0      r0    -0.0113
    557 C           -4.5394   -12.0713   -15.9952 C       0      r0    -0.0082
    558 C           -1.8143   -11.3377   -18.1088 C       0      r0     0.0041
    559 O           -3.8188    -9.9540   -14.9993 O       5      r5    -0.4565
    560 C           -3.4816    -4.1381    17.1821 C       0      r0    -0.0401
    561 C           -3.4271    -4.3784    18.5756 C       0      r0    -0.0408
    562 C           -2.9019    -5.6160   -18.3394 C       0      r0    -0.0252
    563 C           -2.4492    -5.7537   -17.0233 C       0      r0     0.1282
    564 O           -2.5899    -4.7717   -16.0410 O       0      r0    -0.4823
    565 O           -3.9637   -12.4363    18.5372 O       5      r5    -0.4837
    566 C           -2.5917   -12.4173    18.6917 C       5      r5     0.1303
    567 C           -1.8322   -13.5078    18.2019 C       5      r5     0.0086
    568 C           -2.6589   -14.5344    17.6975 C       5      r5    -0.0162
    569 C           -3.9279   -13.9355    17.9169 C       5      r5     0.0794
    570 O           -3.5392    -6.7241   -12.0897 O       5      r5    -0.4689
    571 C           -3.8705    -7.6614   -10.8064 C       5      r5     0.0929
    572 C           -4.6725    -8.7775   -11.2950 C       5      r5    -0.0385
    573 C           -4.7459    -8.6999   -12.6454 C       5      r5    -0.0026
    574 C           -4.0715    -7.5413   -13.0040 C       5      r5     0.1596
    575 C           -5.8077   -12.6276   -15.2637 C       5      r5     0.1516
    576 C           -6.5936   -13.3221   -16.2158 C       5      r5    -0.0361
    577 C           -7.5094   -13.9887   -15.5092 C       5      r5    -0.0305
    578 C           -7.3288   -13.7838   -14.0337 C       5      r5     0.0552
    579 O           -6.0321   -12.5676   -14.0013 O       5      r5    -0.4645
    580 C           -3.5449    -7.4582    -9.5542 C       0      r0    -0.0422
    581 C           -4.8384   -14.7764    17.5358 C       0      r0    -0.0469
    582 H           -6.6674    -8.0073   -15.6262 H       0      r0     0.0692
    583 H           -6.6773   -10.4318   -16.4088 H       0      r0     0.1113
    584 H           -4.2317    -7.5633   -17.5308 H       0      r0     0.0335
    585 H           -4.2795   -10.1321   -18.2002 H       0      r0     0.0719
    586 H           -0.4576    -6.8480   -16.7661 H       0      r0     0.0717
    587 H           -3.2050    -6.6070   -14.8635 H       0      r0     0.0979
    588 H           -4.8088    -6.3512   -14.7500 H       0      r0     0.0501
    589 H           -4.3897   -12.4208   -17.0484 H       0      r0     0.0964
    590 H           -3.6361   -12.3596   -15.4388 H       0      r0     0.0819
    591 H           -0.7489   -11.4518   -18.2006 H       0      r0     0.0515
    592 H           -3.4827    -3.5272   -18.1220 H       0      r0     0.0757
    593 H           -2.7851    -6.3756    18.3051 H       0      r0     0.0483
    594 H           -0.7570   -13.6393    18.1985 H       0      r0     0.1123
    595 H           -2.4536   -15.4988    17.2950 H       0      r0     0.1095
    596 H           -5.1470    -9.4575   -10.6086 H       0      r0     0.0285
    597 H           -5.2620    -9.3527   -13.2875 H       0      r0     0.0930
    598 H           -6.4940   -13.3340   -17.3483 H       0      r0     0.0443
    599 H           -8.2622   -14.6712   -15.9148 H       0      r0     0.0606
    600 H           -3.8074    -8.0915    -8.7334 H       0      r0     0.0354
    601 H           -2.9193    -6.6251    -9.3989 H       0      r0     0.0827
    602 H           -4.5855   -15.7432    17.0875 H       0      r0     0.0904
    603 H           -5.8667   -14.5034    17.7227 H       0      r0     0.0754
    604 C           -9.7357   -17.3034   -10.6343 C       6      r6     0.1763
    605 C           -8.7377   -18.4262   -10.0485 C       6      r6    -0.0108
    606 C           -8.4894   -18.5894    -8.7949 C       6      r6    -0.0365
    607 C           -9.2591   -17.6423    -8.0788 C       6      r6    -0.0176
    608 C           -9.9329   -15.3292    -7.4330 C       5      r5     0.1421
    609 O          -10.9456   -14.8100    -8.2868 O       5      r5    -0.4712
    610 C          -10.3168   -14.9022    -9.5672 C       5      r5     0.1301
    611 C           -9.2579   -15.9269    -9.7160 C       5      r5    -0.0024
    612 C           -9.0108   -16.1867    -8.2033 C       5      r5     0.0052
    613 C          -10.8588   -14.1969   -10.6167 C       0      r0     0.0202
    614 C           -9.3089   -17.1688   -12.2853 C       0      r0    -0.0138
    615 C           -9.8127   -18.2462    -6.7757 C       0      r0    -0.0127
    616 C           -9.8419   -15.1493    -6.1028 C       0      r0     0.0006
    617 O          -10.9036   -17.5244   -10.6179 O       0      r0    -0.5040
    618 C          -10.0703   -13.4131   -14.0778 C       5      r5     0.2498
    619 C           -8.6993   -13.7456   -13.3806 C       5      r5     0.0039
    620 C           -8.9242   -14.0768   -12.0824 C       5      r5    -0.0374
    621 C          -10.3474   -13.9217   -11.9391 C       5      r5     0.1319
    622 O          -11.1712   -13.4437   -12.9299 O       5      r5    -0.4650
    623 O           -7.7847   -16.5103    -5.7766 O       5      r5    -0.4683
    624 C           -8.7675   -15.7195    -5.3091 C       5      r5     0.1360
    625 C           -8.7789   -15.3578    -3.8998 C       5      r5    -0.0299
    626 C           -7.7583   -15.9836    -3.1914 C       5      r5    -0.0290
    627 C           -7.1474   -16.7129    -4.2607 C       5      r5     0.1022
    628 O           -6.9277   -16.6348   -11.4674 O       5      r5    -0.4783
    629 C           -5.5435   -16.6831   -12.3088 C       5      r5     0.0873
    630 C           -5.9532   -17.1998   -13.6173 C       5      r5    -0.0107
    631 C           -7.3239   -17.4112   -13.6934 C       5      r5    -0.0252
    632 C           -7.8255   -17.0556   -12.4777 C       5      r5     0.1043
    633 C          -10.8597    18.6169    -6.9738 C       0      r0     0.1459
    634 C          -11.3216    18.5868    -8.1994 C       0      r0    -0.0112
    635 C          -12.2678    17.5658    -8.6723 C       0      r0    -0.0265
    636 C          -12.9364    16.6443    -7.8856 C       0      r0     0.0372
    637 O          -11.2485    17.9053    -5.8964 O       0      r0    -0.4920
    638 C           -4.4642   -16.5870   -11.7692 C       0      r0    -0.0383
    639 C           -6.1543   -17.3535    -3.8128 C       0      r0    -0.0255
    640 H           -8.2472    18.8245   -10.7352 H       0      r0     0.0646
    641 H           -7.8846    18.5486    -8.4424 H       0      r0     0.0961
    642 H           -8.3882   -15.8728   -10.3963 H       0      r0     0.0908
    643 H           -7.9873   -15.8693    -7.7691 H       0      r0     0.1024
    644 H          -11.8761   -13.7825   -10.3405 H       0      r0     0.0984
    645 H           -9.7126   -17.9829   -12.8419 H       0      r0     0.0551
    646 H           -9.5597   -16.2502   -12.8144 H       0      r0     0.0557
    647 H           -8.8924   -18.5166    -6.1442 H       0      r0     0.1076
    648 H          -10.1052   -17.5150    -6.0098 H       0      r0     0.0715
    649 H          -10.6496   -14.6270    -5.5892 H       0      r0     0.0531
    650 H           -6.8329   -14.5140   -13.3732 H       0      r0     0.0917
    651 H           -8.1765   -14.3235   -11.3464 H       0      r0     0.0489
    652 H           -9.5444   -14.7033    -3.4547 H       0      r0     0.0350
    653 H           -7.4834   -15.9746    -2.0885 H       0      r0     0.0527
    654 H           -5.3256   -17.3639   -14.4420 H       0      r0     0.1050
    655 H           -7.8914   -17.7330   -14.5783 H       0      r0     0.0578
    656 H          -11.0556   -18.5389    -8.9148 H       0      r0     0.1034
    657 H          -12.4172    17.6283    -9.7192 H       0      r0     0.0581
    658 H           -3.5529   -16.7791   -12.3423 H       0      r0     0.0446
    659 H           -4.2319   -16.2868   -10.7425 H       0      r0     0.0491
    660 H           -5.8617   -17.3123    -2.7610 H       0      r0     0.0489
    661 H           -5.4786   -18.0034    -4.3908 H       0      r0     0.1214
    662 C            3.0667    -6.3849   -15.7391 C       6      r6     0.1271
    663 C            1.8302    -7.0988   -15.1531 C       6      r6    -0.0321
    664 C            1.3107    -8.2004   -15.6700 C       6      r6    -0.0270
    665 C            1.9208    -8.8100   -16.8505 C       6      r6    -0.0097
    666 C            4.0043    -8.5692   -18.2499 C       5      r5     0.0750
    667 O            4.8570    -6.9677   -18.4012 O       5      r5    -0.4911
    668 C            3.9459    -6.1142   -18.1391 C       5      r5     0.1818
    669 C            2.8636    -6.6638   -17.3139 C       5      r5     0.0274
    670 C            2.8800    -8.0852   -17.4630 C       5      r5     0.0150
    671 C            3.9868    -4.7828   -18.4919 C       0      r0     0.0298
    672 C            2.9348    -4.8734   -15.4597 C       0      r0     0.0088
    673 C            1.4401   -10.2089   -17.3534 C       0      r0    -0.0282
    674 C            4.7980    -9.6145   -17.5108 C       0      r0     0.0086
    675 O            4.3575    -6.7383   -15.4137 O       0      r0    -0.5704
    676 C            0.9162    -2.8850   -18.2363 C       5      r5     0.1044
    677 C            1.8811    -1.9552    18.6013 C       5      r5    -0.0135
    678 C            3.1356    -2.5399    18.5677 C       5      r5    -0.0087
    679 C            2.8769    -3.8678   -18.4369 C       5      r5     0.1236
    680 O            1.5661    -4.2803   -18.0074 O       5      r5    -0.4862
    681 O            5.0994   -11.3378    18.0167 O       0      r0    -0.4692
    682 C            5.2513   -10.7630   -17.9771 C       0      r0     0.1320
    683 C            5.9086   -11.4481   -16.9940 C       0      r0     0.0002
    684 C            6.4267   -12.8052   -17.1437 C       0      r0    -0.0304
    685 C            6.0517   -13.6819   -18.1621 C       0      r0     0.0114
    686 O            2.7381    -3.4719   -13.6792 O       0      r0    -0.5168
    687 C            3.6391    -4.2226   -11.0460 C       0      r0     0.1563
    688 C            3.5164    -5.4612   -11.6093 C       0      r0    -0.0197
    689 C            3.3680    -5.6510   -13.0705 C       0      r0     0.0171
    690 C            3.0074    -4.6197   -13.9293 C       0      r0     0.1797
    691 C            1.8836   -11.3193   -16.3495 C       3      r3     0.0682
    692 C            0.9159   -12.1506   -15.6970 C       3      r3    -0.0087
    693 C            2.4469   -13.5776   -15.8647 C       0      r0     0.0130
    694 C            3.6845   -12.9569   -15.2385 C       0      r0     0.0758
    695 O            3.5031   -11.2934   -15.4074 O       0      r0    -0.5535
    696 C            4.6250   -13.5271   -14.7421 C       0      r0    -0.0553
    697 C           -0.3210    -2.6166   -17.9929 C       0      r0    -0.0347
    698 H            1.4336    -6.6963   -14.2433 H       0      r0     0.0487
    699 H            0.4848    -8.7688   -15.2795 H       0      r0     0.0898
    700 H            1.9609    -6.1890   -17.5607 H       0      r0     0.1016
    701 H            3.9123    -8.8830    18.1542 H       0      r0     0.1325
    702 H            4.8730    -4.4272    18.3073 H       0      r0     0.1422
    703 H            3.7327    -4.3946   -16.0148 H       0      r0     0.0740
    704 H            2.1664    -4.3804   -15.9728 H       0      r0     0.0897
    705 H            0.3643   -10.2296   -17.6374 H       0      r0     0.0877
    706 H            1.9631   -10.3441   -18.3578 H       0      r0     0.0847
    707 H            4.9694    -9.2632   -16.5085 H       0      r0     0.0744
    708 H            1.6433    -0.9338    18.2615 H       0      r0     0.1013
    709 H            4.0582    -2.0918    18.3635 H       0      r0     0.0851
    710 H            6.1203   -11.0640   -15.9970 H       0      r0     0.0546
    711 H            7.0888   -13.0619   -16.3695 H       0      r0     0.0446
    712 H            3.7130    -6.2526   -10.8625 H       0      r0     0.0430
    713 H            3.6955    -6.5907   -13.4233 H       0      r0     0.1237
    714 H            0.6905   -12.2819   -14.6749 H       0      r0     0.0942
    715 H           -3.5336    18.9241   -16.8075 H       0      r0     0.1701
    716 H            4.7433   -14.6037   -14.7032 H       0      r0     0.0425
    717 H            5.5246   -13.0095   -14.4556 H       0      r0     0.0467
    718 H           -0.7561    -1.6587   -18.2159 H       0      r0     0.0448
    719 H           -0.9861    -3.3759   -17.5767 H       0      r0     0.0925
    720 C           -2.0886   -16.4626   -15.6869 C       6      r6     0.0834
    721 C           -3.1681   -15.5013   -15.3382 C       6      r6    -0.0250
    722 C           -4.4111   -15.6425   -15.9160 C       6      r6    -0.0473
    723 C           -4.5970   -16.4412   -17.0251 C       6      r6    -0.0333
    724 C           -3.4043   -18.5276   -17.7614 C       5      r5     0.1253
    725 O           -1.7976   -18.7598   -18.0492 O       5      r5    -0.4563
    726 C           -1.0778   -17.7426   -17.6475 C       5      r5     0.1881
    727 C           -1.9654   -16.6416   -17.1624 C       5      r5     0.0225
    728 C           -3.4196   -17.0348   -17.7220 C       5      r5     0.0030
    729 C            0.3072   -17.6248   -17.5647 C       0      r0     0.0042
    730 C           -0.7374   -16.0600   -15.0101 C       0      r0    -0.0103
    731 C           -6.0379   -16.7461   -17.4090 C       0      r0    -0.0588
    732 C           -4.5122    18.9640   -18.6973 C       0      r0    -0.0028
    733 O           -2.4046   -18.0563   -15.0741 O       0      r0    -0.4482
    734 C            2.1542   -14.7601   -16.5566 C       5      r5     0.0851
    735 C            3.1610   -15.7539   -16.5508 C       5      r5    -0.0341
    736 C            2.4228   -16.8254   -17.0365 C       5      r5    -0.0315
    737 C            1.0881   -16.4429   -17.3822 C       5      r5     0.1251
    738 O            0.7356   -15.1402   -17.4088 O       5      r5    -0.4763
    739 O           -3.5806   -17.4371    16.7980 O       5      r5    -0.4903
    740 C           -4.5056   -18.4266    17.5057 C       5      r5     0.1115
    741 C           -5.6694   -18.9169    16.8603 C       5      r5    -0.0290
    742 C           -5.4585   -18.4024    15.5677 C       5      r5    -0.0194
    743 C           -4.2672   -17.5975    15.5081 C       5      r5     0.1181
    744 O           -0.8387   -14.1236   -13.3916 O       5      r5    -0.4688
    745 C           -0.8246   -14.1914   -11.7003 C       5      r5     0.1805
    746 C           -1.0988   -15.6646   -11.4183 C       5      r5    -0.0319
    747 C           -1.1081   -16.3569   -12.6114 C       5      r5    -0.0136
    748 C           -0.9358   -15.4253   -13.6120 C       5      r5     0.1394
    749 C           -6.5399   -18.0807   -16.8955 C       5      r5     0.1199
    750 C           -7.7503   -18.4110   -17.4442 C       5      r5    -0.0239
    751 C           -8.1179    18.3468   -16.8009 C       5      r5    -0.0107
    752 C           -7.0615    17.9772   -15.8915 C       5      r5     0.0955
    753 O           -5.9037   -18.8651   -15.9538 O       5      r5    -0.4699
    754 C           -7.0510    16.8622   -15.1868 C       0      r0    -0.0342
    755 C            1.6291   -12.7421   -16.6346 C       3      r3     0.0277
    756 H           -3.0370   -14.7336   -14.5883 H       0      r0     0.0792
    757 H           -5.2912   -15.1878   -15.5329 H       0      r0     0.0482
    758 H           -1.5304   -15.7716   -17.6060 H       0      r0     0.0682
    759 H           -3.5511   -16.8152    18.6143 H       0      r0     0.1053
    760 H            0.8467   -18.5398   -17.8017 H       0      r0     0.0638
    761 H           -0.0781   -16.9609   -15.0748 H       0      r0     0.0677
    762 H           -0.1149   -15.4542   -15.6558 H       0      r0     0.1026
    763 H           -6.6649   -15.9149   -17.0281 H       0      r0     0.0274
    764 H           -6.2020   -16.5361   -18.4386 H       0      r0     0.0314
    765 H           -5.2176    18.1526   -18.4592 H       0      r0     0.0800
    766 H            4.1650   -15.6620   -16.2141 H       0      r0     0.0665
    767 H            2.8105   -17.8422   -17.0484 H       0      r0     0.0647
    768 H           -6.4640    18.4850    17.3827 H       0      r0     0.0663
    769 H           -6.0872   -18.4076    14.7462 H       0      r0     0.0863
    770 H           -1.1964   -15.9709   -10.4407 H       0      r0     0.0365
    771 H           -1.1623   -17.4644   -12.7449 H       0      r0     0.1239
    772 H           -8.3415   -17.8625   -18.1480 H       0      r0     0.0469
    773 H           -9.0032    17.7450   -16.9865 H       0      r0     0.0826
    774 H           -7.8559    16.1343   -15.2156 H       0      r0     0.0816
    775 H           -6.2699    16.7602   -14.5018 H       0      r0     0.0581
    776 H            4.9070    -7.0023   -16.1853 H       0      r0     0.3208
    777 H            3.1810   -11.0746   -14.4604 H       0      r0     0.3286
    778 C           -1.7192     6.9656    -4.0290 C       0      r0     0.1787
    779 C           -3.1567     6.8712    -4.2014 C       0      r0    -0.0034
    780 C           -3.9414     5.8260    -4.5730 C       0      r0    -0.0047
    781 C           -3.5625     4.4764    -4.7559 C       0      r0     0.1775
    782 C           -4.7101     3.6142    -5.0078 C       0      r0     0.0118
    783 O           -2.4291     3.8360    -4.6829 O       0      r0    -0.5086
    784 O           -1.2320     7.8748    -3.4809 O       0      r0    -0.4981
    785 C           -5.9069     4.0073    -4.0556 C       5      r5     0.1527
    786 C           -7.1135     3.9161    -4.6830 C       5      r5    -0.0260
    787 C           -8.0461     4.1514    -3.6827 C       5      r5    -0.0126
    788 C           -7.3502     4.5568    -2.4917 C       5      r5     0.0874
    789 O           -5.7627     4.3607    -2.7753 O       5      r5    -0.4570
    790 C           -7.9788     4.9682    -1.3978 C       0      r0    -0.0454
    791 C           -0.8308     5.9959    -4.9009 C       0      r0     0.0147
    792 C            2.2779     6.7804    -6.8382 C       5      r5     0.1013
    793 C            2.0365     7.9456    -6.0812 C       5      r5    -0.0107
    794 C            0.8239     7.7637    -5.3242 C       5      r5    -0.0040
    795 C            0.4476     6.5004    -5.5976 C       5      r5     0.1461
    796 O            1.2042     5.6927    -6.4098 O       5      r5    -0.4784
    797 H           -3.6434     7.8478    -4.0963 H       0      r0     0.0596
    798 H           -4.9948     6.0723    -4.6753 H       0      r0     0.0607
    799 H           -5.0341     3.4974    -6.0921 H       0      r0     0.0423
    800 H           -4.4437     2.5454    -4.8632 H       0      r0     0.1097
    801 H           -7.3763     3.6413    -5.7184 H       0      r0     0.0465
    802 H           -9.0867     4.0899    -3.8166 H       0      r0     0.1223
    803 H           -9.0550     5.1053    -1.3664 H       0      r0     0.0590
    804 H           -7.4239     5.1626    -0.5388 H       0      r0     0.0565
    805 H           -0.6630     5.0496    -4.4026 H       0      r0     0.0824
    806 H           -1.5960     5.6409    -5.5638 H       0      r0     0.1181
    807 H            2.7049     8.7959    -6.1783 H       0      r0     0.1049
    808 H            0.2998     8.4837    -4.6636 H       0      r0     0.1006
    809 C           -5.8403    16.4395     8.7988 C       0      r0     0.1588
    810 C           -6.1512    17.7163     9.4010 C       0      r0    -0.0379
    811 C           -7.2164    18.5255     9.1975 C       0      r0    -0.0182
    812 C           -8.3287    18.2447     8.4177 C       0      r0     0.1563
    813 C           -8.6676    16.8905     7.8695 C       0      r0     0.0343
    814 O           -9.2669   -18.7644     8.3051 O       0      r0    -0.5001
    815 O           -6.2748    15.7545     7.9449 O       0      r0    -0.4966
    816 C           -8.7963    16.8563     6.3008 C       5      r5     0.1785
    817 C           -8.7556    17.9966     5.5626 C       5      r5     0.0275
    818 C           -8.9602    17.6183     4.2555 C       5      r5    -0.0048
    819 C           -9.2763    16.1986     4.2434 C       5      r5     0.1033
    820 O           -9.0940    15.6421     5.7456 O       5      r5    -0.4622
    821 C           -9.5396    15.5282     3.1492 C       0      r0    -0.0302
    822 C           -4.7863    15.7690     9.7419 C       0      r0     0.0079
    823 C           -8.8031    13.8993    11.8515 C       0      r0     0.1555
    824 C           -7.3656    14.0227    11.7795 C       0      r0    -0.0165
    825 C           -6.6730    14.6431    10.6561 C       0      r0    -0.0206
    826 C           -5.3435    14.7521    10.5825 C       0      r0     0.1308
    827 O           -4.3609    14.1617    11.3682 O       0      r0    -0.5016
    828 H           -5.4375    18.0741    10.1088 H       0      r0     0.0839
    829 H           -7.3261   -18.4361     9.6116 H       0      r0     0.0692
    830 H           -8.0421    16.0928     8.2608 H       0      r0     0.1292
    831 H           -9.6406    16.4679     8.1582 H       0      r0     0.0997
    832 H           -8.5118   -18.9369     5.9510 H       0      r0     0.1236
    833 H           -8.8555    18.2524     3.4115 H       0      r0     0.1083
    834 H           -9.5672    16.1887     2.3013 H       0      r0     0.0642
    835 H           -9.6838    14.4468     3.0266 H       0      r0     0.0588
    836 H           -3.9469    15.4125     9.1246 H       0      r0     0.0710
    837 H           -4.3148    16.5952    10.2861 H       0      r0     0.1000
    838 H           -6.7916    13.7406    12.6035 H       0      r0     0.1249
    839 H           -7.2710    15.1944     9.9399 H       0      r0     0.0840
    840 C           -8.1132    11.4030    -6.5003 C       5      r5     0.0901
    841 O           -8.1750    12.9337    -5.9709 O       5      r5    -0.4908
    842 C           -8.8942    12.6341    -4.8596 C       5      r5     0.1566
    843 C           -9.2482    11.2595    -4.6300 C       5      r5     0.0110
    844 C           -8.8047    10.4930    -5.7137 C       5      r5    -0.0032
    845 C           -7.4318    10.9700    -7.6124 C       0      r0    -0.0044
    846 C          -10.2235    13.3982    -2.8098 C       0      r0     0.1251
    847 O          -11.1513    12.1850    -2.6164 O       0      r0    -0.4695
    848 C          -10.8931    13.7096     0.2792 C       0      r0     0.1161
    849 C          -10.8352    14.6351    -0.6541 C       0      r0    -0.0240
    850 C          -10.1307    14.4884    -2.0444 C       0      r0    -0.0167
    851 C           -9.3627    13.5949    -3.9096 C       0      r0     0.0228
    852 C           -7.2836     9.6308    -8.0828 C       5      r5     0.1233
    853 C           -6.3849     9.4589    -9.1836 C       5      r5    -0.0232
    854 C           -6.4002     8.1130    -9.6546 C       5      r5    -0.0392
    855 C           -7.2688     7.5695    -8.6981 C       5      r5     0.0965
    856 O           -7.9090     8.4881    -7.5803 O       5      r5    -0.4675
    857 C           -7.4233     6.3041    -8.9746 C       0      r0    -0.0296
    858 H           -9.8648    10.9902    -3.8082 H       0      r0     0.1193
    859 H           -8.9052     9.4218    -5.7733 H       0      r0     0.1084
    860 H           -6.9174    11.7229    -8.1841 H       0      r0     0.1142
    861 H          -11.2052    15.6750    -0.4001 H       0      r0     0.1138
    862 H           -9.5105    15.2942    -2.4045 H       0      r0     0.0688
    863 H           -9.0459    14.5977    -4.0472 H       0      r0     0.0751
    864 H           -5.8212    10.2772    -9.6297 H       0      r0     0.0947
    865 H           -5.9218     7.6494   -10.5189 H       0      r0     0.0602
    866 H           -6.9436     5.7849    -9.7725 H       0      r0     0.0490
    867 H           -8.0772     5.7163    -8.3165 H       0      r0     0.1271
    868 C          -17.3035    10.8657    -3.9383 C       5      r5     0.1611
    869 O          -17.6872    11.8490    -4.7830 O       5      r5    -0.4604
    870 C          -16.3215    12.4963    -5.0131 C       5      r5     0.1233
    871 C          -15.2505    11.8919    -4.3020 C       5      r5    -0.0345
    872 C          -15.8987    10.9345    -3.5666 C       5      r5    -0.0063
    873 C          -18.1997     9.9545    -3.3302 C       0      r0     0.0120
    874 C          -14.9980    14.2931    -6.1976 C       5      r5     0.1349
    875 O          -14.9947    15.0965    -7.3395 O       5      r5    -0.4809
    876 C          -13.5383    15.6981    -7.0853 C       5      r5     0.1248
    877 C          -12.9072    15.2121    -5.9522 C       5      r5    -0.0095
    878 C          -13.8003    14.3743    -5.3801 C       5      r5    -0.0196
    879 C          -16.1807    13.5656    -5.8796 C       0      r0     0.0393
    880 C          -17.7776     8.9607    -2.4107 C       5      r5     0.1415
    881 C           18.4464     8.2335    -1.8024 C       5      r5    -0.0168
    882 C          -18.3958     7.2742    -0.9207 C       5      r5    -0.0287
    883 C          -16.9690     7.5259    -1.0516 C       5      r5     0.1022
    884 O          -16.5086     8.6511    -2.0912 O       5      r5    -0.4676
    885 C          -16.3507     6.7495    -0.3293 C       0      r0    -0.0355
    886 H          -14.1893    12.1173    -4.2719 H       0      r0     0.0559
    887 H          -15.3941    10.3198    -2.7595 H       0      r0     0.0913
    888 H           17.9963    10.1996    -3.4975 H       0      r0     0.0692
    889 H          -11.9653    15.4932    -5.5240 H       0      r0     0.0755
    890 H          -13.6406    13.8310    -4.4920 H       0      r0     0.0523
    891 H          -17.0954    13.8901    -6.3160 H       0      r0     0.1079
    892 H           17.3751     8.4590    -1.9971 H       0      r0     0.0625
    893 H           18.3152     6.5452    -0.3830 H       0      r0     0.0629
    894 H          -16.8305     5.9800     0.2906 H       0      r0     0.0965
    895 H          -15.3175     6.6937    -0.2659 H       0      r0     0.0503
    896 C           -4.4171    -0.6508    14.3726 C       0      r0     0.1084
    897 O           -4.1375    -2.2115    13.8849 O       0      r0    -0.4757
    898 C           -3.9057    -2.5416    15.4517 C       0      r0     0.1158
    899 C           -4.1172    -1.6232    16.4807 C       0      r0    -0.0345
    900 C           -4.3677    -0.3767    15.7906 C       0      r0    -0.0222
    901 C           -4.5681     0.4085    13.6855 C       0      r0     0.0020
    902 C           -3.4697    -3.8369    15.8076 C       0      r0    -0.0010
    903 H           -4.0183    -1.8326    17.5601 H       0      r0     0.0413
    904 H           -4.4994     0.5453    16.2601 H       0      r0     0.0756
    905 H           -4.6584     1.1624    12.9493 H       0      r0     0.0679
    906 H           -3.3107    -4.5720    15.0492 H       0      r0     0.0791
    907 C          -17.6502    10.0508    11.3413 C       5      r5     0.1208
    908 O          -16.6650    11.2083    11.1974 O       5      r5    -0.4509
    909 C          -17.5075    12.2412    11.6798 C       5      r5     0.1412
    910 C           18.4927    11.9477    12.1942 C       5      r5    -0.0305
    911 C           18.3614    10.6102    11.9188 C       5      r5    -0.0219
    912 C          -17.5780     8.7908    11.0477 C       0      r0    -0.0166
    913 C          -17.1201    13.6471    11.6996 C       0      r0    -0.0181
    914 H           17.8303    12.6055    12.7256 H       0      r0     0.0369
    915 H           17.4874     9.9936    12.0622 H       0      r0     0.0646
    916 H          -17.5988     7.6958    10.8516 H       0      r0     0.0510
    917 H          -17.8200    14.3246    12.2102 H       0      r0     0.0375
    918 C          -13.6881     3.2431     6.4642 C       5      r5     0.1696
    919 O          -14.9860     2.4821     6.7948 O       5      r5    -0.4315
    920 C          -15.8724     3.3952     5.8335 C       5      r5     0.1327
    921 C          -15.3366     4.5077     5.1618 C       5      r5    -0.0275
    922 C          -13.9802     4.3460     5.4898 C       5      r5    -0.0016
    923 C          -12.4873     3.1883     6.5907 C       0      r0     0.1707
    924 C          -17.0962     3.2355     5.4924 C       0      r0     0.1604
    925 H          -15.7717     5.2959     4.4905 H       0      r0     0.0695
    926 H          -13.2283     5.0219     5.1172 H       0      r0     0.1229
    927 H          -11.7806     3.8868     6.1673 H       0      r0     0.1416
    928 H          -17.6107     4.0012     4.9303 H       0      r0     0.1129
    929 C           16.6583    13.5148    -9.9399 C       5      r5     0.0500
    930 C           15.9302    12.4339    -9.2698 C       5      r5    -0.0271
    931 C           16.8428    11.5319    -9.1974 C       5      r5    -0.0139
    932 C           18.1756    12.0302    -9.8728 C       5      r5     0.1421
    933 C          -18.4399    12.6217   -12.4272 C       5      r5     0.1569
    934 O           18.5551    13.9040   -12.8784 O       5      r5    -0.4945
    935 C           17.2183    14.1313   -12.4793 C       5      r5     0.1190
    936 C           16.7781    13.0584   -11.4646 C       5      r5     0.0006
    937 C           17.8510    12.0170   -11.4745 C       5      r5     0.0277
    938 C           16.4970    15.1479   -12.8676 C       0      r0     0.0117
    939 C           16.1025    14.9322    -9.6534 C       0      r0    -0.0286
    940 C          -17.9217    11.0886    -9.3200 C       0      r0     0.0035
    941 C          -17.3482    11.8923   -12.8498 C       0      r0     0.0045
    942 O           18.4221    13.3099    -9.7130 O       5      r5    -0.4905
    943 C           13.1067    16.5053   -12.5124 C       5      r5     0.2149
    944 C           12.9289    14.9787   -12.4289 C       5      r5    -0.0089
    945 C           14.0912    14.3605   -12.4630 C       5      r5    -0.0261
    946 C           15.0622    15.3973   -12.7773 C       5      r5     0.1375
    947 O           14.7916    16.6957   -12.9635 O       5      r5    -0.4807
    948 O          -17.9041     9.6236   -11.9159 O       5      r5    -0.4936
    949 C          -17.0835    10.5602   -12.4988 C       5      r5     0.1252
    950 C          -15.6896    10.2469   -12.6429 C       5      r5    -0.0266
    951 C          -15.3417     9.0596   -12.0032 C       5      r5    -0.0329
    952 C          -16.6527     8.6851   -11.5347 C       5      r5     0.0923
    953 O           15.9755    16.5071    -7.6961 O       5      r5    -0.4844
    954 C           16.9087    16.6504    -6.3756 C       5      r5     0.0952
    955 C           17.8108    15.4884    -6.4572 C       5      r5    -0.0037
    956 C           17.6067    14.7849    -7.6347 C       5      r5     0.0284
    957 C           16.5726    15.4085    -8.2510 C       5      r5     0.1494
    958 C          -18.3349     9.8162    -8.6290 C       5      r5     0.1402
    959 C           18.1834     8.9011    -9.3592 C       5      r5    -0.0200
    960 C           17.9676     7.8548    -8.5287 C       5      r5    -0.0335
    961 C           18.5427     8.0523    -7.1119 C       5      r5     0.0552
    962 O          -17.9308     9.5021    -7.3988 O       5      r5    -0.4806
    963 C           16.8469    17.4983    -5.5216 C       0      r0     0.0017
    964 C          -16.5634     7.6102   -10.8945 C       0      r0    -0.0368
    965 H           14.9220    12.3515    -8.9059 H       0      r0     0.0549
    966 H           16.7292    10.5257    -8.8496 H       0      r0     0.0525
    967 H           15.7989    12.6613   -11.6789 H       0      r0     0.0813
    968 H           17.5541    10.9739   -11.7154 H       0      r0     0.0801
    969 H           17.1324    15.7579   -13.4889 H       0      r0     0.1132
    970 H           16.2948    15.6552   -10.4642 H       0      r0     0.0606
    971 H           15.0456    15.0243    -9.7964 H       0      r0     0.0446
    972 H          -17.3016    10.8696   -10.2108 H       0      r0     0.0805
    973 H          -17.3592    11.7511    -8.7101 H       0      r0     0.0955
    974 H          -16.6942    12.4671   -13.4746 H       0      r0     0.0796
    975 H           11.9270    14.6138   -12.3446 H       0      r0     0.0641
    976 H           14.2801    13.3115   -12.4582 H       0      r0     0.0870
    977 H          -15.0484    10.9223   -13.2178 H       0      r0     0.0713
    978 H          -14.3862     8.5792   -11.8404 H       0      r0     0.0673
    979 H           18.5538    15.2440    -5.7448 H       0      r0     0.0874
    980 H           18.0984    13.8952    -8.0217 H       0      r0     0.1468
    981 H           17.9055     8.9455   -10.4163 H       0      r0     0.0832
    982 H           17.4040     7.0289    -8.8536 H       0      r0     0.0618
    983 H           17.4278    17.4653    -4.6234 H       0      r0     0.1067
    984 H           16.1965    18.4275    -5.6999 H       0      r0     0.1239
    985 H          -15.6226     7.0699   -10.6426 H       0      r0     0.0497
    986 H          -17.4716     7.2217   -10.4771 H       0      r0     0.0774
    987 C           14.8439     4.0618    -6.6880 C       5      r5     0.1247
    988 C           15.5207     3.0040    -7.6049 C       5      r5    -0.0401
    989 C           15.2321     1.7987    -7.2451 C       5      r5    -0.0420
    990 C           14.3205     2.0909    -6.1041 C       5      r5     0.0705
    991 C           14.5463     2.7271    -3.5151 C       5      r5     0.1465
    992 O           14.3242     4.0605    -3.2440 O       5      r5    -0.4944
    993 C           15.0341     4.8097    -4.2460 C       5      r5     0.1511
    994 C           15.5715     3.9049    -5.3370 C       5      r5     0.0069
    995 C           15.1842     2.4595    -4.8631 C       5      r5     0.0109
    996 C           15.2552     6.1391    -4.0435 C       0      r0     0.0357
    997 C           14.9573     5.4958    -7.4287 C       0      r0    -0.0165
    998 C           13.4379     0.8064    -5.7870 C       0      r0    -0.0107
    999 C           14.1384     1.7632    -2.6106 C       0      r0    -0.0083
   1000 O           13.5905     3.6359    -6.3528 O       5      r5    -0.4733
   1001 C           16.8786     8.9543    -5.3063 C       5      r5     0.1429
   1002 C           17.5535     7.9305    -5.9917 C       5      r5     0.0054
   1003 C           17.0233     6.6408    -5.5989 C       5      r5    -0.0277
   1004 C           16.0870     7.0258    -4.7310 C       5      r5     0.1049
   1005 O           15.9215     8.5868    -4.4357 O       5      r5    -0.4792
   1006 O           15.2174    -0.2398    -3.9822 O       0      r0    -0.4850
   1007 C           14.3718     0.3967    -2.7871 C       0      r0     0.0835
   1008 C           13.9100    -0.3643    -1.7431 C       0      r0    -0.0369
   1009 C           14.2775    -1.7368    -1.8743 C       0      r0    -0.0382
   1010 C           14.8452    -1.6825    -3.1687 C       0      r0     0.0887
   1011 O           14.3653     6.4201    -9.7162 O       5      r5    -0.4759
   1012 C           13.1422     5.8965   -10.6388 C       5      r5     0.0796
   1013 C           12.4269     4.8365    -9.9459 C       5      r5    -0.0359
   1014 C           13.0309     4.6468    -8.7062 C       5      r5    -0.0037
   1015 C           14.0917     5.5351    -8.6878 C       5      r5     0.1417
   1016 C           12.0688     0.7697    -6.5228 C       0      r0     0.1497
   1017 C           12.1154     1.1619    -7.7839 C       0      r0    -0.0047
   1018 C           10.8136     1.3404    -8.5752 C       0      r0    -0.0021
   1019 C           10.8985     1.6209    -9.8509 C       0      r0     0.1194
   1020 O           10.9253     0.3593    -5.8467 O       0      r0    -0.4927
   1021 C           12.7959     6.3779   -11.7685 C       0      r0    -0.0543
   1022 C           15.1684    -2.8862    -3.5118 C       0      r0    -0.0272
   1023 H           16.2384     3.2490    -8.3313 H       0      r0     0.0441
   1024 H           15.5806     0.8410    -7.6023 H       0      r0     0.0971
   1025 H           16.6704     3.8750    -5.5421 H       0      r0     0.0288
   1026 H           16.0189     1.7618    -4.7113 H       0      r0     0.0605
   1027 H           14.6082     6.4831    -3.2433 H       0      r0     0.1246
   1028 H           14.6655     6.1325    -6.6401 H       0      r0     0.0827
   1029 H           15.9646     5.8874    -7.5635 H       0      r0     0.0400
   1030 H           13.8750    -0.2509    -5.7882 H       0      r0     0.0913
   1031 H           12.9526     1.0191    -4.8286 H       0      r0     0.0916
   1032 H           13.6468     2.1402    -1.6829 H       0      r0     0.0558
   1033 H          -18.0389     7.2861    -7.1353 H       0      r0     0.0737
   1034 H           17.3857     5.6516    -5.8541 H       0      r0     0.0504
   1035 H           13.2945     0.0112    -0.9273 H       0      r0     0.0539
   1036 H           14.0520    -2.5814    -1.2133 H       0      r0     0.0470
   1037 H           11.4846     4.3896   -10.2727 H       0      r0     0.0598
   1038 H           12.6541     3.9597    -7.9685 H       0      r0     0.1167
   1039 H           13.0918     1.3699    -8.1987 H       0      r0     0.0483
   1040 H            9.7957     1.3140    -8.1251 H       0      r0     0.1288
   1041 H           11.9388     6.0367   -12.3321 H       0      r0     0.0405
   1042 H           13.3866     7.1743   -12.1310 H       0      r0     0.0496
   1043 H           14.8667    -3.7159    -2.8651 H       0      r0     0.0395
   1044 H           15.6784    -3.2122    -4.3786 H       0      r0     0.0863
   1045 C          -16.8160    16.9735   -11.7917 C       6      r6     0.0987
   1046 C          -17.1565    15.7854   -10.8977 C       6      r6     0.0034
   1047 C          -16.4193    14.6424   -11.0182 C       6      r6     0.0011
   1048 C          -15.2688    14.6853   -11.9111 C       6      r6    -0.0146
   1049 C          -14.1955    15.9330   -13.8765 C       5      r5     0.1457
   1050 O          -14.2895    17.3115   -13.9801 O       5      r5    -0.4944
   1051 C          -15.7305    17.5909   -13.9639 C       5      r5     0.1497
   1052 C          -16.5461    16.5610   -13.2256 C       5      r5     0.0184
   1053 C          -15.4643    15.3197   -13.2969 C       5      r5     0.0062
   1054 C          -16.3763    18.5574   -14.7182 C       0      r0     0.0213
   1055 C          -17.8875    18.0876   -11.7118 C       0      r0     0.0351
   1056 C          -14.2418    13.8239   -11.5822 C       0      r0    -0.0328
   1057 C          -13.1148    15.2126   -14.3785 C       0      r0    -0.0025
   1058 O          -15.6627    17.7339   -11.2216 O       0      r0    -0.5858
   1059 C           17.3734    18.9078   -14.8725 C       5      r5     0.1429
   1060 C           17.7150   -17.8384   -15.5702 C       5      r5    -0.0116
   1061 C          -18.1668   -18.0116   -15.5915 C       5      r5    -0.0086
   1062 C          -17.7756    18.7249   -14.9218 C       5      r5     0.1664
   1063 O           18.5005    17.9001   -14.4460 O       5      r5    -0.4759
   1064 O          -13.9343    12.8316   -14.2872 O       0      r0    -0.5607
   1065 C          -12.9752    13.7645   -14.4904 C       0      r0     0.1227
   1066 C          -11.6664    13.6230   -14.8310 C       0      r0    -0.0333
   1067 C          -11.0169    12.3096   -14.9022 C       0      r0    -0.0374
   1068 C          -11.6245    11.0877   -14.6094 C       0      r0    -0.0038
   1069 O           17.7718   -18.6505   -10.4508 O       0      r0    -0.5047
   1070 C           17.9598   -18.6472    -7.6406 C       0      r0     0.1480
   1071 C          -18.3111    18.5302    -7.8257 C       0      r0    -0.0214
   1072 C          -17.7677    18.0969    -9.2865 C       0      r0    -0.0083
   1073 C          -18.2841    18.4232   -10.3368 C       0      r0     0.1289
   1074 C          -14.2755    12.9171   -10.4952 C       3      r3    -0.0332
   1075 C          -14.2378    12.8339    -9.1565 C       3      r3    -0.0195
   1076 C          -12.2798    11.9378    -9.0197 C       0      r0     0.0040
   1077 C          -11.3759    13.0786    -8.5796 C       0      r0     0.1258
   1078 O          -11.5716    14.3279    -9.1701 O       0      r0    -0.5831
   1079 C          -10.4632    12.7729    -7.6685 C       0      r0    -0.0109
   1080 C           16.1154    18.8646   -14.7004 C       0      r0     0.0080
   1081 H          -18.0038    15.7576   -10.2184 H       0      r0     0.0781
   1082 H          -16.6067    13.7375   -10.4692 H       0      r0     0.1010
   1083 H          -17.4469    16.3651   -13.7291 H       0      r0     0.1135
   1084 H          -15.5016    14.5765   -14.0864 H       0      r0     0.0907
   1085 H          -15.4571   -18.8105   -15.0583 H       0      r0     0.0716
   1086 H          -17.5413    18.9283   -12.1885 H       0      r0     0.1444
   1087 H           18.5921    17.7585   -12.3210 H       0      r0     0.1085
   1088 H          -13.9523    12.1415   -15.1651 H       0      r0     0.2358
   1089 H          -13.4622    13.6960   -12.3919 H       0      r0     0.0958
   1090 H          -12.2932    15.8857   -14.6209 H       0      r0     0.1111
   1091 H           17.0587   -17.0757   -15.9825 H       0      r0     0.0773
   1092 H          -17.5355   -17.3086   -16.0717 H       0      r0     0.0359
   1093 H          -11.1153    14.5030   -15.0786 H       0      r0     0.0850
   1094 H           -9.9771    12.3041   -15.0436 H       0      r0     0.0770
   1095 H          -17.7715    18.1630    -6.9599 H       0      r0     0.0434
   1096 H          -16.8340    17.5010    -9.2251 H       0      r0     0.0873
   1097 H          -14.2913    13.5731    -8.2950 H       0      r0     0.1303
   1098 H          -13.2975     6.5113    -4.8138 H       0      r0     0.3549
   1099 H          -10.4953    11.7722    -7.2903 H       0      r0     0.0790
   1100 H           -9.7262    13.4178    -7.2416 H       0      r0     0.1119
   1101 H           15.4471   -18.2993   -15.0250 H       0      r0     0.0814
   1102 H           15.6645    18.0077   -14.2351 H       0      r0     0.1327
   1103 C          -14.0945     7.6687    -6.2386 C       6      r6     0.1143
   1104 C          -15.4103     7.6464    -5.4949 C       6      r6    -0.0121
   1105 C          -16.2936     6.6487    -5.5714 C       6      r6    -0.0147
   1106 C          -16.0602     5.5195    -6.4621 C       6      r6    -0.0137
   1107 C          -14.3690     4.5851    -8.0618 C       5      r5     0.1563
   1108 O          -13.0926     4.8952    -7.8401 O       5      r5    -0.5172
   1109 C          -12.9483     6.2749    -8.0614 C       5      r5     0.1751
   1110 C          -14.2408     6.9754    -7.6196 C       5      r5     0.0143
   1111 C          -15.2176     5.7267    -7.6982 C       5      r5     0.0068
   1112 C          -11.8378     6.9514    -8.4391 C       0      r0     0.0433
   1113 C          -13.7119     9.1455    -6.2875 C       0      r0     0.0245
   1114 C          -16.7462     4.3432    -6.1605 C       0      r0     0.0004
   1115 C          -14.8604     3.4242    -8.7373 C       0      r0     0.0022
   1116 O          -12.9465     7.1630    -5.4452 O       0      r0    -0.5737
   1117 C          -11.8911    10.5147    -9.1098 C       5      r5     0.1126
   1118 C          -10.5215    10.2519    -9.1792 C       5      r5    -0.0275
   1119 C          -10.5180     8.8472    -9.0015 C       5      r5     0.0133
   1120 C          -11.8018     8.3511    -8.8178 C       5      r5     0.1620
   1121 O          -12.8203     9.2588    -8.9707 O       5      r5    -0.4898
   1122 O          -17.2395     4.1335    -9.0401 O       0      r0    -0.5740
   1123 C          -16.2037     3.2404    -9.1672 C       0      r0     0.1558
   1124 C          -16.2241     1.9299    -9.5850 C       0      r0     0.0019
   1125 C          -17.4094     1.2475   -10.1156 C       0      r0    -0.0114
   1126 C          -18.6352     1.8806   -10.3044 C       0      r0     0.0049
   1127 O          -12.0577    10.5430    -5.4731 O       0      r0    -0.4661
   1128 C          -11.8874    11.0558    -2.7397 C       0      r0     0.1854
   1129 C          -12.6367     9.8605    -2.5906 C       0      r0    -0.0269
   1130 C          -13.1593     9.3062    -3.7754 C       0      r0     0.0074
   1131 C          -12.8506     9.7434    -5.1316 C       0      r0     0.2090
   1132 C          -17.6725     4.1148    -5.0965 C       5      r5     0.1353
   1133 C          -18.1954     2.8076    -5.0213 C       5      r5    -0.0266
   1134 C           18.2236     2.6414    -3.9118 C       5      r5    -0.0551
   1135 C           18.3112     3.9605    -3.3924 C       5      r5     0.0937
   1136 O          -18.0425     5.0050    -4.1033 O       5      r5    -0.4842
   1137 C           17.5704     4.0174    -2.3430 C       0      r0    -0.0503
   1138 C          -13.4515    11.8305    -9.7817 C       3      r3     0.0009
   1139 H          -15.7114     8.4737    -4.9105 H       0      r0     0.0724
   1140 H          -17.1767     6.6063    -4.9104 H       0      r0     0.1252
   1141 H          -14.5406     7.8289    -8.2211 H       0      r0     0.0669
   1142 H          -15.9195     6.0092    -8.4724 H       0      r0     0.0742
   1143 H          -11.0210     6.3081    -8.6018 H       0      r0     0.1248
   1144 H          -13.2868     9.4841    -7.2136 H       0      r0     0.1464
   1145 H          -14.6597     9.7707    -6.3527 H       0      r0     0.0447
   1146 H          -17.7752     4.2210    -9.9141 H       0      r0     0.3624
   1147 H          -16.5458     3.3966    -6.7027 H       0      r0     0.0957
   1148 H          -14.1258     2.6653    -8.9546 H       0      r0     0.0455
   1149 H           -9.7499    10.9458    -9.3274 H       0      r0     0.0360
   1150 H           -9.6551     8.2159    -8.9545 H       0      r0     0.0973
   1151 H          -15.3469     1.3318    -9.4344 H       0      r0     0.0670
   1152 H          -17.4365     0.1971   -10.3716 H       0      r0     0.1110
   1153 H          -12.8554     9.4242    -1.6254 H       0      r0     0.0487
   1154 H          -13.7167     8.4190    -3.6747 H       0      r0     0.1142
   1155 H          -17.7937     2.0272    -5.6165 H       0      r0     0.0796
   1156 H           17.6913     1.7659    -3.5675 H       0      r0     0.0305
   1157 H           16.9504     3.2285    -2.0225 H       0      r0     0.0392
   1158 H           17.4593     5.0256    -1.8714 H       0      r0     0.0545
   1159 H          -14.9606    17.6881   -11.8718 H       0      r0     0.3158
   1160 H          -12.2315    14.2098    -9.8388 H       0      r0     0.2708
   1161 C            7.2273    -6.4437   -13.6820 C       0      r0     0.2363
   1162 C            7.0448    -7.6875   -14.4741 C       0      r0     0.0336
   1163 C            7.4368    -7.8523   -15.7301 C       0      r0     0.0002
   1164 C            7.8475    -6.7149   -16.5987 C       0      r0     0.2085
   1165 C            8.3963    -7.1798   -18.0040 C       0      r0     0.0081
   1166 O            7.8346    -5.5889   -16.3200 O       0      r0    -0.4809
   1167 O            6.4320    -5.9999   -12.9720 O       0      r0    -0.4587
   1168 C            8.8118    -8.6687   -17.9592 C       5      r5     0.1251
   1169 C            8.1974    -9.4994    18.4881 C       5      r5    -0.0141
   1170 C            8.8903   -10.6843    18.6414 C       5      r5     0.0076
   1171 C            9.7673   -10.5812   -17.5797 C       5      r5     0.0859
   1172 O            9.7468    -9.0258   -17.0770 O       5      r5    -0.4848
   1173 C           10.4475   -11.4784   -17.1232 C       0      r0    -0.0227
   1174 C            8.6024    -5.6460   -13.8154 C       0      r0     0.0302
   1175 C            8.7918    -5.5325    -8.8777 C       0      r0     0.0949
   1176 C            9.3558    -5.9874   -10.0527 C       0      r0    -0.0152
   1177 C            8.8566    -5.6001   -11.4146 C       0      r0     0.0107
   1178 C            9.4578    -5.8916   -12.5531 C       0      r0     0.1572
   1179 O           10.7221    -6.5026   -12.6610 O       0      r0    -0.4709
   1180 H            6.7301    -8.5949   -13.9440 H       0      r0     0.0819
   1181 H            7.4080    -8.8689   -16.1462 H       0      r0     0.0536
   1182 H            7.7083    -7.0639    18.6131 H       0      r0     0.0626
   1183 H            9.2836    -6.5569   -18.3838 H       0      r0     0.1406
   1184 H            7.4261    -9.3237    17.7725 H       0      r0     0.0930
   1185 H            8.7049   -11.5887    18.0756 H       0      r0     0.1165
   1186 H           10.4607   -12.5269   -17.5169 H       0      r0     0.1274
   1187 H           11.1133   -11.4900   -16.2718 H       0      r0     0.0585
   1188 H            9.3286    -5.8876   -14.5890 H       0      r0     0.1045
   1189 H            8.4472    -4.6256   -14.1225 H       0      r0     0.0827
   1190 H           10.1006    -6.7180    -9.7744 H       0      r0     0.0792
   1191 H            7.9086    -5.1424   -11.6527 H       0      r0     0.0957
   1192 C           16.6792     4.1773     7.2838 C       0      r0     0.1906
   1193 C           16.2299     3.7349     5.9832 C       0      r0    -0.0041
   1194 C           15.1870     4.1950     5.2515 C       0      r0     0.0069
   1195 C           14.1328     5.0782     5.6966 C       0      r0     0.1975
   1196 C           12.9036     5.1081     4.7476 C       0      r0     0.0092
   1197 O           14.1461     5.5860     6.7533 O       0      r0    -0.4483
   1198 O           16.1455     4.8163     8.0960 O       0      r0    -0.4722
   1199 C           13.4532     5.0684     3.2959 C       5      r5     0.1303
   1200 C           13.5323     6.3340     2.7093 C       5      r5    -0.0292
   1201 C           14.0142     6.0958     1.4590 C       5      r5    -0.0339
   1202 C           14.1711     4.6735     1.2413 C       5      r5     0.0805
   1203 O           13.8625     3.9423     2.6833 O       5      r5    -0.4736
   1204 C           14.5252     4.0926     0.1260 C       0      r0    -0.0445
   1205 C           18.0799     3.3906     7.6780 C       0      r0     0.0066
   1206 C           18.1216    -0.6835     5.4167 C       0      r0     0.1407
   1207 C           17.3660    -0.2656     6.3878 C       0      r0    -0.0077
   1208 C           17.4074     1.1407     7.0993 C       0      r0    -0.0141
   1209 C           18.1869     2.1338     6.8146 C       0      r0     0.1263
   1210 O          -18.0128     2.2687     5.7962 O       0      r0    -0.4939
   1211 H           16.9670     3.2146     5.4311 H       0      r0     0.0596
   1212 H           15.0536     3.8957     4.1929 H       0      r0     0.0982
   1213 H           12.3239     4.1594     4.8703 H       0      r0     0.1036
   1214 H           12.1757     5.9407     4.9310 H       0      r0     0.1270
   1215 H           13.2895     7.2885     3.1361 H       0      r0     0.0552
   1216 H           14.2504     6.8629     0.7383 H       0      r0     0.0484
   1217 H           14.7851     4.7014    -0.7280 H       0      r0     0.0644
   1218 H           14.5525     3.0438     0.0259 H       0      r0     0.0540
   1219 H          -18.3435     4.0169     7.6917 H       0      r0     0.0991
   1220 H           18.0024     3.0961     8.7435 H       0      r0     0.0888
   1221 H           16.5924    -1.0077     6.6657 H       0      r0     0.0815
   1222 H           16.8096     1.3839     7.9446 H       0      r0     0.0599
   1223 C           -1.0390    14.9800    -3.0348 C       5      r5     0.1321
   1224 O           -0.0498    16.1192    -2.6330 O       5      r5    -0.4952
   1225 C            0.8661    15.2609    -2.0018 C       5      r5     0.1203
   1226 C            0.5456    13.8714    -2.0615 C       5      r5    -0.0286
   1227 C           -0.7332    13.6977    -2.6393 C       5      r5    -0.0117
   1228 C           -2.2606    15.2291    -3.6865 C       0      r0     0.0257
   1229 C            2.3881    16.9427    -1.0375 C       0      r0     0.1221
   1230 O            3.7062    17.1071    -0.3336 O       0      r0    -0.4562
   1231 C            2.9160   -17.9781    -0.5464 C       0      r0     0.0118
   1232 C            1.7251   -18.6405    -0.9277 C       0      r0    -0.0381
   1233 C            1.5048    17.9326    -1.2399 C       0      r0    -0.0131
   1234 C            2.0658    15.6223    -1.3238 C       0      r0    -0.0007
   1235 C           -3.3256    14.3117    -3.8840 C       5      r5     0.1085
   1236 C           -4.0914    14.8876    -4.7907 C       5      r5    -0.0122
   1237 C           -5.1149    13.8904    -5.0396 C       5      r5    -0.0077
   1238 C           -4.7156    12.7261    -4.2857 C       5      r5     0.1026
   1239 O           -3.4659    12.7743    -3.2229 O       5      r5    -0.4738
   1240 C           -5.4779    11.7947    -4.5241 C       0      r0    -0.0326
   1241 H            1.1528    13.0172    -1.7253 H       0      r0     0.0488
   1242 H           -1.3244    12.8084    -2.8771 H       0      r0     0.0902
   1243 H           -2.2599    16.1869    -4.2262 H       0      r0     0.0942
   1244 H            0.9895   -17.8511    -1.1649 H       0      r0     0.0371
   1245 H            0.5199    17.6667    -1.6893 H       0      r0     0.1074
   1246 H            2.7649    14.8904    -0.9777 H       0      r0     0.0747
   1247 H           -3.8822    15.8483    -5.2810 H       0      r0     0.0758
   1248 H           -5.9292    13.9670    -5.7056 H       0      r0     0.0970
   1249 H           -6.4236    11.8808    -5.0561 H       0      r0     0.0834
   1250 H           -5.3073    10.8009    -4.1202 H       0      r0     0.0457
   1251 C            1.7245    17.2358   -16.5597 C       5      r5     0.1382
   1252 O            3.0781    17.5074   -16.6901 O       5      r5    -0.4699
   1253 C            3.2513    18.1924   -15.3293 C       5      r5     0.0973
   1254 C            2.1849    18.0600   -14.4394 C       5      r5    -0.0220
   1255 C            1.1973    17.4776   -15.2401 C       5      r5     0.0122
   1256 C            1.0261    16.6292   -17.5990 C       0      r0     0.0098
   1257 C            4.5438   -18.0361   -13.9496 C       0      r0     0.1278
   1258 O            5.7294   -17.6482   -13.2968 O       0      r0    -0.5613
   1259 C            3.8170   -15.7831   -11.9479 C       0      r0     0.0200
   1260 C            2.9491   -16.3804   -12.8787 C       0      r0    -0.0223
   1261 C            3.3237   -17.4450   -13.8546 C       0      r0    -0.0218
   1262 C            4.4126    18.8861   -14.9826 C       0      r0    -0.0010
   1263 C           -0.3259    16.2276   -17.5217 C       5      r5     0.1416
   1264 C           -1.0795    15.8970   -18.6987 C       5      r5    -0.0092
   1265 C           -2.4406    15.8639   -18.4372 C       5      r5    -0.0109
   1266 C           -2.3887    15.9189   -16.9941 C       5      r5     0.1195
   1267 O           -1.0540    16.1213   -16.2908 O       5      r5    -0.4712
   1268 C           -3.5922    15.7729   -16.5913 C       0      r0    -0.0374
   1269 H            2.1786    18.4043   -13.3944 H       0      r0     0.0746
   1270 H            0.2621    17.1362   -14.9742 H       0      r0     0.1300
   1271 H            1.5847    16.5048   -18.5126 H       0      r0     0.0597
   1272 H            1.9220   -16.0429   -12.9840 H       0      r0     0.0605
   1273 H            2.5236   -17.7280   -14.5680 H       0      r0     0.0414
   1274 H            5.3032    18.7457   -15.5252 H       0      r0     0.1194
   1275 H           -0.7087    15.8845    17.6783 H       0      r0     0.0833
   1276 H           -3.3013    15.7617    18.3221 H       0      r0     0.0999
   1277 H           -4.4001    15.6778   -17.2712 H       0      r0     0.0989
   1278 H           -3.8634    15.8253   -15.5311 H       0      r0     0.0462
   1279 C            9.1167   -10.5940   -12.4036 C       5      r5     0.1581
   1280 O            9.2303    -9.2008   -11.9479 O       5      r5    -0.4304
   1281 C           10.4320    -8.8456   -12.8224 C       5      r5     0.1471
   1282 C           10.9454    -9.9461   -13.5607 C       5      r5    -0.0416
   1283 C           10.1506   -11.0931   -13.2828 C       5      r5    -0.0431
   1284 C            8.2668   -11.4893   -12.2118 C       0      r0     0.1552
   1285 C           11.0297    -7.8246   -13.1293 C       0      r0     0.1553
   1286 H           11.7530    -9.9265   -14.2506 H       0      r0     0.0363
   1287 H           10.2983   -12.1018   -13.6065 H       0      r0     0.0802
   1288 H            8.3153   -12.5327   -12.6725 H       0      r0     0.0685
   1289 H           11.7564    -7.7626   -13.9336 H       0      r0     0.0998
   1290 C            0.9663     2.0333     6.3626 C       5      r5     0.1376
   1291 O            2.3635     2.3374     6.9230 O       5      r5    -0.4346
   1292 C            1.9066     3.1049     8.0535 C       5      r5     0.1409
   1293 C            0.5368     3.2346     8.3021 C       5      r5    -0.0166
   1294 C           -0.0405     2.5949     7.2282 C       5      r5     0.0077
   1295 C            0.5638     1.6856     5.1505 C       0      r0    -0.0189
   1296 C            2.8284     3.8455     8.9099 C       0      r0    -0.0200
   1297 H            0.0011     3.7645     9.0316 H       0      r0     0.0408
   1298 H           -1.0539     2.6444     6.9990 H       0      r0     0.0671
   1299 H            0.0924     1.4084     4.2964 H       0      r0     0.0434
   1300 H            2.3105     4.4244     9.6479 H       0      r0     0.0376
   1301 C            9.7382    -2.8440     4.4093 C       0      r0     0.0980
   1302 O            9.8920    -4.3490     5.1657 O       0      r0    -0.4585
   1303 C            8.5184    -3.9700     6.0007 C       0      r0     0.0843
   1304 C            7.8229    -2.7131     5.6868 C       0      r0    -0.0449
   1305 C            8.5538    -2.0123     4.6666 C       0      r0    -0.0395
   1306 C           10.6092    -2.2690     3.5858 C       0      r0    -0.0094
   1307 C            7.9987    -4.6995     6.9414 C       0      r0    -0.0136
   1308 H            6.9774    -2.2988     6.1823 H       0      r0     0.0444
   1309 H            8.3281    -1.1034     4.2262 H       0      r0     0.0526
   1310 H           11.4107    -2.0434     2.9106 H       0      r0     0.0687
   1311 H            7.5213    -5.1841     7.7326 H       0      r0     0.1314
   1312 C            8.9831     3.1675     0.8106 C       0      r0     0.0898
   1313 O            8.0145     1.8311     1.2802 O       0      r0    -0.4601
   1314 C            6.7938     2.8941     1.6402 C       0      r0     0.1073
   1315 C            7.1162     4.3356     1.5410 C       0      r0    -0.0365
   1316 C            8.4266     4.5079     0.9989 C       0      r0    -0.0390
   1317 C           10.2100     3.1295     0.3817 C       0      r0    -0.0192
   1318 C            5.5891     2.6917     2.1319 C       0      r0    -0.0086
   1319 H            6.4788     5.1605     1.8842 H       0      r0     0.0501
   1320 H            8.9421     5.3881     0.7071 H       0      r0     0.0454
   1321 H           11.2029     3.2323     0.0033 H       0      r0     0.0628
   1322 H            4.5482     2.8211     2.4847 H       0      r0     0.0960
   1323 C            5.0538     8.4151   -10.4121 C       5      r5     0.1385
   1324 C            3.5957     7.9292   -10.0793 C       5      r5    -0.0199
   1325 C            2.9290     8.8321    -9.4336 C       5      r5    -0.0382
   1326 C            3.9747     9.8515    -9.2767 C       5      r5     0.0755
   1327 C            6.0417    10.4123    -7.7555 C       5      r5     0.1701
   1328 O            7.2526    10.2307    -8.4453 O       5      r5    -0.4676
   1329 C            7.1935     8.8745    -8.9541 C       5      r5     0.1510
   1330 C            5.7930     8.2977    -8.9700 C       5      r5     0.0235
   1331 C            5.0252     9.3624    -8.1233 C       5      r5     0.0117
   1332 C            8.2599     8.2047    -9.3721 C       0      r0     0.0077
   1333 C            5.6310     7.3365   -11.4917 C       0      r0     0.0021
   1334 C            3.3898    11.2193    -9.0141 C       0      r0     0.0015
   1335 C            5.8611    11.2738    -6.7498 C       0      r0     0.0259
   1336 O            5.0933     9.7223   -10.6598 O       5      r5    -0.4700
   1337 C            7.7643     4.6947   -10.2992 C       5      r5     0.0920
   1338 C            9.0596     4.9259   -10.7900 C       5      r5    -0.0307
   1339 C            9.2927     6.3181   -10.5004 C       5      r5    -0.0273
   1340 C            8.2063     6.7898    -9.7524 C       5      r5     0.1289
   1341 O            7.1367     6.0186    -9.4931 O       5      r5    -0.4957
   1342 O            3.3865    10.8007    -6.0811 O       5      r5    -0.4865
   1343 C            4.6454    11.4973    -5.9737 C       5      r5     0.1266
   1344 C            4.7115    12.5706    -5.0919 C       5      r5    -0.0297
   1345 C            3.5226    12.5990    -4.4548 C       5      r5    -0.0360
   1346 C            2.6218    11.6334    -5.0833 C       5      r5     0.1124
   1347 O            4.9999     6.3576   -13.7028 O       5      r5    -0.4803
   1348 C            4.4761     7.2341   -14.9782 C       5      r5     0.0899
   1349 C            4.2585     8.6322   -14.5726 C       5      r5    -0.0231
   1350 C            4.6032     8.7382   -13.2365 C       5      r5    -0.0069
   1351 C            4.9530     7.4570   -12.8862 C       5      r5     0.1479
   1352 C            2.5068    11.7033   -10.2006 C       5      r5     0.1660
   1353 C            1.2158    11.1467   -10.2066 C       5      r5    -0.0101
   1354 C            0.5680    11.6313   -11.2395 C       5      r5    -0.0206
   1355 C            1.4730    12.5794   -12.0466 C       5      r5     0.0671
   1356 O            2.8366    12.6362   -11.0279 O       5      r5    -0.4500
   1357 C            4.2798     6.7378   -16.0731 C       0      r0    -0.0285
   1358 C            1.3624    11.4280    -4.7357 C       0      r0    -0.0418
   1359 H            3.3166     6.9162   -10.3399 H       0      r0     0.0599
   1360 H            1.9404     8.8167    -9.0128 H       0      r0     0.0403
   1361 H            5.8828     7.3353    -8.5281 H       0      r0     0.0875
   1362 H            4.4044     8.9903    -7.3338 H       0      r0     0.0698
   1363 H            9.1967     8.7560    -9.3375 H       0      r0     0.0956
   1364 H            6.7086     7.5048   -11.6273 H       0      r0     0.1112
   1365 H            5.6326     6.3480   -11.0895 H       0      r0     0.0891
   1366 H            2.8810    11.1110    -8.0055 H       0      r0     0.0847
   1367 H            4.1013    12.0330    -8.8538 H       0      r0     0.1268
   1368 H            6.7022    11.9680    -6.5162 H       0      r0     0.0793
   1369 H            9.6571     4.2321   -11.3591 H       0      r0     0.0526
   1370 H           10.0368     6.9591   -10.8047 H       0      r0     0.0457
   1371 H            5.5778    13.2147    -4.8890 H       0      r0     0.0672
   1372 H            3.2386    13.2306    -3.6433 H       0      r0     0.0349
   1373 H            3.9067     9.3791   -15.3019 H       0      r0     0.0977
   1374 H            4.5899     9.5788   -12.5835 H       0      r0     0.1125
   1375 H            0.8328    10.3837    -9.5281 H       0      r0     0.0566
   1376 H           -0.3837    11.2982   -11.5020 H       0      r0     0.0812
   1377 H            3.8598     7.3292   -16.8826 H       0      r0     0.1035
   1378 H            4.5067     5.7045   -16.3025 H       0      r0     0.0558
   1379 H            0.8908    11.8405    -3.8998 H       0      r0     0.0400
   1380 H            0.7177    10.7565    -5.2859 H       0      r0     0.0563
   1381 C           -1.0562     8.0535   -14.5343 C       5      r5     0.1303
   1382 C           -1.8051     7.6938   -13.3161 C       5      r5    -0.0129
   1383 C           -3.0763     7.3939   -13.4968 C       5      r5    -0.0419
   1384 C           -3.0696     7.4178   -14.9758 C       5      r5     0.0841
   1385 C           -3.3212     9.4267   -16.6839 C       5      r5     0.1551
   1386 O           -2.1411     9.7527   -17.3277 O       5      r5    -0.5002
   1387 C           -1.1971     9.9380   -16.2724 C       5      r5     0.1352
   1388 C           -1.6537     9.3967   -14.9211 C       5      r5     0.0123
   1389 C           -3.1386     8.9801   -15.2526 C       5      r5     0.0246
   1390 C           -0.0216    10.5045   -16.4760 C       0      r0     0.0056
   1391 C            0.4214     8.3927   -14.0843 C       0      r0    -0.0231
   1392 C           -4.1617     6.6235   -15.6512 C       0      r0     0.0197
   1393 C           -4.5138     9.5426   -17.3377 C       0      r0     0.0046
   1394 O           -1.4904     7.1410   -15.4752 O       5      r5    -0.4486
   1395 C            2.6957    11.5832   -14.2426 C       5      r5     0.1130
   1396 C            1.5596    12.0287   -13.4528 C       5      r5    -0.0013
   1397 C            0.5194    11.6052   -14.3092 C       5      r5    -0.0241
   1398 C            0.9414    10.9364   -15.4400 C       5      r5     0.1226
   1399 O            2.2979    10.7940   -15.5548 O       5      r5    -0.4706
   1400 O           -5.9384     8.6230   -15.5401 O       5      r5    -0.4816
   1401 C           -5.7746     9.2210   -16.7639 C       5      r5     0.1267
   1402 C           -6.9658     9.4470   -17.5393 C       5      r5    -0.0120
   1403 C           -8.1275     9.1614   -16.7951 C       5      r5    -0.0169
   1404 C           -7.5229     8.7134   -15.5868 C       5      r5     0.1064
   1405 O            0.7914     6.9257   -12.0685 O       5      r5    -0.4887
   1406 C            1.6838     5.5479   -12.1071 C       5      r5     0.0936
   1407 C            2.1523     5.1149   -13.3674 C       5      r5     0.0004
   1408 C            1.5839     6.1667   -14.1638 C       5      r5    -0.0012
   1409 C            0.9223     7.1034   -13.3929 C       5      r5     0.1483
   1410 C           -3.6329     5.1720   -15.9957 C       0      r0     0.2064
   1411 C           -2.6694     4.6714   -15.0481 C       0      r0     0.0116
   1412 C           -2.3056     3.3271   -15.1560 C       0      r0    -0.0149
   1413 C           -2.9358     2.4824   -16.0877 C       0      r0     0.1572
   1414 O           -4.0668     4.5924   -16.9219 O       0      r0    -0.4706
   1415 C            2.0218     4.6920   -11.2083 C       0      r0    -0.0461
   1416 C           -8.4718     8.4415   -14.7425 C       0      r0    -0.0333
   1417 H           -1.3539     7.6614   -12.3180 H       0      r0     0.0737
   1418 H           -3.8135     7.0816   -12.8082 H       0      r0     0.0676
   1419 H           -1.4935    10.1044   -14.0964 H       0      r0     0.0852
   1420 H           -3.9684     9.3111   -14.6480 H       0      r0     0.0842
   1421 H            0.1537    10.7755   -17.5079 H       0      r0     0.0881
   1422 H            1.1120     8.6668   -14.8986 H       0      r0     0.0689
   1423 H            0.5594     9.3011   -13.4511 H       0      r0     0.0507
   1424 H           -5.0258     6.5338   -14.9933 H       0      r0     0.1034
   1425 H           -4.6582     6.9653   -16.5616 H       0      r0     0.1030
   1426 H           -4.4217    10.0161   -18.2900 H       0      r0     0.0685
   1427 H            1.1328    13.5746   -11.9706 H       0      r0     0.0867
   1428 H           -0.5114    11.7770   -14.0971 H       0      r0     0.0963
   1429 H           -6.9400     9.7754   -18.5803 H       0      r0     0.0953
   1430 H           -9.2129     9.2386   -16.9416 H       0      r0     0.1099
   1431 H            2.7508     4.2540   -13.6196 H       0      r0     0.1119
   1432 H            1.7547     6.2697   -15.1966 H       0      r0     0.0588
   1433 H           -2.1775     5.2779   -14.2412 H       0      r0     0.0773
   1434 H           -1.6212     2.7432   -14.6136 H       0      r0     0.0524
   1435 H            2.5318     3.8107   -11.4443 H       0      r0     0.0672
   1436 H            1.7806     4.7715   -10.2040 H       0      r0     0.0510
   1437 H           -9.5054     8.6004   -14.9643 H       0      r0     0.0997
   1438 H           -8.2797     8.1597   -13.7259 H       0      r0     0.0578
   1439 C            7.5580    11.3925   -13.7061 C       6      r6     0.0607
   1440 C            6.1152    11.6297   -13.8854 C       6      r6    -0.0427
   1441 C            5.4127    12.5545   -13.1535 C       6      r6    -0.0224
   1442 C            6.1739    13.0374   -12.0336 C       6      r6     0.0081
   1443 C            8.3533    12.4890   -10.6559 C       5      r5     0.1581
   1444 O            9.5426    11.9814   -11.2021 O       5      r5    -0.5053
   1445 C            9.1426    10.8723   -11.9367 C       5      r5     0.1687
   1446 C            7.7143    10.9469   -12.3010 C       5      r5     0.0243
   1447 C            7.0435    11.9568   -11.2694 C       5      r5     0.0257
   1448 C           10.0290     9.8939   -12.3608 C       0      r0     0.0191
   1449 C            7.8213    10.2690   -14.7625 C       0      r0     0.0112
   1450 C            6.0168    14.3685   -11.6685 C       0      r0    -0.0160
   1451 C            8.3509    13.3102    -9.5979 C       0      r0     0.0292
   1452 O            8.6697    12.7378   -13.8994 O       0      r0    -0.5739
   1453 C            8.5635     6.9498   -13.7429 C       5      r5     0.0931
   1454 C            9.9552     6.6477   -14.0650 C       5      r5    -0.0373
   1455 C           10.5402     7.7601   -13.4589 C       5      r5    -0.0251
   1456 C            9.5854     8.6782   -12.9463 C       5      r5     0.1324
   1457 O            8.2579     8.3684   -12.9913 O       5      r5    -0.5054
   1458 O            5.8817    13.4069    -8.9833 O       0      r0    -0.5628
   1459 C            7.1537    13.8114    -8.9009 C       0      r0     0.1496
   1460 C            7.7585    14.7722    -8.1002 C       0      r0    -0.0297
   1461 C            7.0061    15.5818    -7.1771 C       0      r0    -0.0381
   1462 C            5.6416    15.3606    -6.9242 C       0      r0    -0.0100
   1463 O            7.7078     9.5986   -17.0314 O       0      r0    -0.4530
   1464 C            7.8736    11.7866    18.4095 C       0      r0     0.2046
   1465 C            7.4122    12.4627   -17.8912 C       0      r0    -0.0009
   1466 C            7.3655    11.8963   -16.5168 C       0      r0    -0.0042
   1467 C            7.5572    10.6138   -16.2218 C       0      r0     0.1683
   1468 C            4.8127    15.1050   -12.0404 C       3      r3    -0.0069
   1469 C            4.6150    16.3600   -12.5616 C       3      r3    -0.0486
   1470 C            4.6041    17.3448   -10.6471 C       0      r0     0.0017
   1471 C            5.9004    18.1321   -10.6848 C       3      r3     0.1483
   1472 O            6.5071   -18.8038   -10.2193 O       3      r3    -0.4615
   1473 C            7.0772    17.7569   -11.2411 C       3      r3     0.0343
   1474 C            7.8635     5.9862   -14.1308 C       0      r0    -0.0445
   1475 H            5.5950    11.1612   -14.7160 H       0      r0     0.0470
   1476 H            4.4225    12.8681   -13.4214 H       0      r0     0.0791
   1477 H            7.2516     9.9317   -12.1453 H       0      r0     0.1160
   1478 H            6.4185    11.5224   -10.4888 H       0      r0     0.1661
   1479 H           11.1097     9.9477   -12.1827 H       0      r0     0.0636
   1480 H            8.8511     9.9267   -14.6000 H       0      r0     0.1143
   1481 H            7.2733     9.3232   -14.5478 H       0      r0     0.1083
   1482 H            5.3364    14.2024    -8.6889 H       0      r0     0.2640
   1483 H            6.6110    14.8120   -10.9012 H       0      r0     0.0641
   1484 H            9.3717    13.6861    -9.3515 H       0      r0     0.1293
   1485 H           10.4970     5.8554   -14.4910 H       0      r0     0.0693
   1486 H           11.5602     7.9849   -13.4883 H       0      r0     0.0411
   1487 H            8.8334    14.9349    -8.0817 H       0      r0     0.0914
   1488 H            7.4249    16.2567    -6.4648 H       0      r0     0.0657
   1489 H            7.2453    13.4808   -18.0942 H       0      r0     0.1117
   1490 H            7.3066    12.5896   -15.6323 H       0      r0     0.0851
   1491 H            5.0301    17.1057   -13.1552 H       0      r0     0.0501
   1492 H           -2.0499    16.2496    -8.5714 H       0      r0     0.2871
   1493 H            6.9962    16.8184   -11.8208 H       0      r0     0.0476
   1494 H            8.0743    18.1495   -11.2720 H       0      r0     0.1332
   1495 H            8.1884     5.1278   -14.7059 H       0      r0     0.0209
   1496 H            6.7759     6.0407   -14.0458 H       0      r0     0.1307
   1497 C           -0.9269    16.0869   -10.1128 C       6      r6     0.1118
   1498 C           -1.0970    15.0479   -11.2103 C       6      r6    -0.0408
   1499 C           -1.5941    13.8415   -11.1011 C       6      r6    -0.0457
   1500 C           -1.9061    13.7068    -9.6853 C       6      r6    -0.0039
   1501 C           -1.2016    14.1077    -7.2785 C       5      r5     0.1453
   1502 O           -1.0722    15.3489    -6.7481 O       5      r5    -0.4941
   1503 C           -0.0552    15.9967    -7.6474 C       5      r5     0.1214
   1504 C           -0.0141    15.3778    -9.0093 C       5      r5    -0.0004
   1505 C           -0.7284    13.9620    -8.7054 C       5      r5     0.0035
   1506 C            0.8111    16.9542    -7.3403 C       0      r0    -0.0032
   1507 C           -0.2604    17.3065   -10.6598 C       0      r0     0.0261
   1508 C           -3.1427    13.1588    -9.2362 C       0      r0     0.0149
   1509 C           -1.5316    13.0318    -6.5073 C       0      r0    -0.0066
   1510 O           -2.0636    16.7216    -9.5056 O       0      r0    -0.5840
   1511 C            3.5314    17.4731    -9.6889 C       5      r5     0.1460
   1512 C            3.6855    18.5245    -8.7065 C       5      r5     0.0181
   1513 C            2.6123    18.4876    -7.8174 C       5      r5     0.0017
   1514 C            1.8691    17.4205    -8.2478 C       5      r5     0.1194
   1515 O            2.2787    16.7428    -9.4758 O       5      r5    -0.4958
   1516 O           -0.9951    11.3582    -8.3742 O       0      r0    -0.5942
   1517 C           -1.3996    11.7137    -7.1234 C       0      r0     0.1257
   1518 C           -1.7519    10.9072    -6.0973 C       0      r0    -0.0396
   1519 C           -1.9458     9.4390    -6.2136 C       0      r0    -0.0333
   1520 C           -1.6014     8.7253    -7.3039 C       0      r0    -0.0091
   1521 O           -0.3652    18.6522   -12.4918 O       0      r0    -0.4842
   1522 C           -2.7611   -18.8433   -14.0687 C       0      r0     0.2018
   1523 C           -3.2339    18.2982   -12.9972 C       0      r0    -0.0268
   1524 C           -2.4584    17.7071   -12.0061 C       0      r0    -0.0036
   1525 C           -1.0366    17.9249   -11.8531 C       0      r0     0.1829
   1526 C           -4.3980    13.2517    -9.9293 C       5      r5     0.1485
   1527 C           -4.4076    14.0288   -11.0973 C       5      r5    -0.0144
   1528 C           -5.6517    13.7776   -11.6445 C       5      r5    -0.0282
   1529 C           -6.3100    12.7239   -10.8827 C       5      r5     0.1069
   1530 O           -5.5206    12.3934    -9.6265 O       5      r5    -0.4690
   1531 C           -7.4602    12.2105   -11.2451 C       0      r0    -0.0575
   1532 C            4.1079    16.1158   -11.2560 C       3      r3     0.0193
   1533 H           -0.7732    15.2243   -12.2412 H       0      r0     0.0457
   1534 H           -1.8586    13.1145   -11.8786 H       0      r0     0.1134
   1535 H            1.0604    15.2865    -9.2996 H       0      r0     0.1116
   1536 H            0.0634    13.2211    -8.8503 H       0      r0     0.0933
   1537 H            0.7676    17.4276    -6.3878 H       0      r0     0.0674
   1538 H           -0.0074    18.1693    -9.9655 H       0      r0     0.0777
   1539 H            0.7922    17.0824   -10.9428 H       0      r0     0.1047
   1540 H           -3.2658    12.7330    -8.2315 H       0      r0     0.0934
   1541 H           -1.0517    10.4283    -8.4479 H       0      r0     0.2704
   1542 H           -1.9176    13.2050    -5.5279 H       0      r0     0.0652
   1543 H            4.5444   -18.7966    -8.5590 H       0      r0     0.1075
   1544 H            2.4917   -18.8815    -6.9217 H       0      r0     0.0766
   1545 H           -2.0356    11.3787    -5.1491 H       0      r0     0.0548
   1546 H           -2.4700     8.9018    -5.4803 H       0      r0     0.0771
   1547 H           -4.2777    18.0896   -13.2204 H       0      r0     0.0535
   1548 H           -3.0161    17.0986   -11.3228 H       0      r0     0.0958
   1549 H           -3.6488    14.6364   -11.3920 H       0      r0     0.0544
   1550 H           -5.9811    14.2593   -12.4641 H       0      r0     0.0355
   1551 H           -7.9593    12.6344   -12.1647 H       0      r0     0.0257
   1552 H           -7.9534    11.4508   -10.6887 H       0      r0     0.0441
   1553 H            9.1909    12.8685   -12.9781 H       0      r0     0.2974
   1554 H            6.0062   -18.4609   -12.8203 H       0      r0     0.2846
   1555 C           -7.6637    13.2856     1.6244 C       0      r0     0.1517
   1556 C           -8.1814    12.6189     2.6958 C       0      r0    -0.0313
   1557 C           -9.2389    11.6558     2.7190 C       0      r0    -0.0425
   1558 C          -10.3373    11.5912     1.9215 C       0      r0     0.1242
   1559 C          -11.3896    10.6537     2.4332 C       0      r0     0.0027
   1560 O          -10.6814    12.3124     0.8821 O       0      r0    -0.4909
   1561 O           -6.7297    14.2100     1.7577 O       0      r0    -0.4858
   1562 C          -11.5710     9.3093     1.7751 C       5      r5     0.1515
   1563 C          -11.1393     9.2305     0.4167 C       5      r5     0.0008
   1564 C          -11.5367     7.9823     0.0708 C       5      r5    -0.0176
   1565 C          -12.2454     7.3495     1.1921 C       5      r5     0.0930
   1566 O          -12.2304     8.3592     2.4466 O       5      r5    -0.4894
   1567 C          -12.7100     6.2242     1.1516 C       0      r0    -0.0299
   1568 C           -8.0541    12.8419     0.2530 C       0      r0     0.0372
   1569 C           -4.2527    12.3719    -1.8648 C       0      r0     0.1499
   1570 C           -4.3510    11.9003    -0.6419 C       0      r0    -0.0274
   1571 C           -5.6507    12.0161    -0.0168 C       0      r0    -0.0108
   1572 C           -6.7847    12.6981    -0.6613 C       0      r0     0.2102
   1573 O           -6.9365    13.2212    -1.6889 O       0      r0    -0.4420
   1574 H           -7.6968    12.8147     3.6057 H       0      r0     0.0607
   1575 H           -9.1993    11.1271     3.6884 H       0      r0     0.0969
   1576 H          -11.0933    10.6450     3.4689 H       0      r0     0.0641
   1577 H          -12.3592    11.1731     2.5923 H       0      r0     0.0701
   1578 H          -10.5822     9.9490    -0.1710 H       0      r0     0.0911
   1579 H          -11.2838     7.5331    -0.8758 H       0      r0     0.0608
   1580 H          -12.6774     5.5996     0.2649 H       0      r0     0.0457
   1581 H          -13.2472     5.7577     1.9926 H       0      r0     0.0794
   1582 H           -8.5606    11.8840     0.2352 H       0      r0     0.0768
   1583 H           -8.7746    13.4919    -0.2843 H       0      r0     0.1145
   1584 H           -3.4476    11.4448    -0.2590 H       0      r0     0.0315
   1585 H           -5.7676    11.5516     0.9026 H       0      r0     0.0384
   1586 C            0.9031    -1.1199   -11.6504 C       0      r0     0.1885
   1587 C            2.0459    -0.5707   -12.4400 C       0      r0     0.0052
   1588 C            3.3642    -0.9681   -12.4410 C       0      r0     0.0016
   1589 C            4.0557    -1.9804   -11.7520 C       0      r0     0.1643
   1590 C            5.5608    -2.0400   -12.1412 C       0      r0    -0.0147
   1591 O            3.5718    -2.8198   -10.8509 O       0      r0    -0.4904
   1592 O           -0.0543    -0.5513   -11.2959 O       0      r0    -0.4862
   1593 C            6.5786    -1.4996   -11.0727 C       5      r5     0.1387
   1594 C            6.2100    -1.6167    -9.7256 C       5      r5     0.0043
   1595 C            7.3414    -1.3938    -9.0201 C       5      r5    -0.0093
   1596 C            8.4516    -1.0862    -9.9617 C       5      r5     0.0889
   1597 O            7.8136    -1.1761   -11.4502 O       5      r5    -0.4867
   1598 C            9.6431    -0.8618    -9.5754 C       0      r0    -0.0482
   1599 C            0.9709    -2.6840   -11.4809 C       0      r0     0.0391
   1600 C           -2.0671    -4.4232   -14.7594 C       0      r0     0.1360
   1601 C           -1.8582    -4.2041   -13.4510 C       0      r0    -0.0163
   1602 C           -0.6348    -3.4731   -12.9862 C       0      r0    -0.0154
   1603 C           -0.3199    -3.3232   -11.7493 C       0      r0     0.1546
   1604 O           -0.9995    -3.6613   -10.5778 O       0      r0    -0.4987
   1605 H            1.6392     0.2288   -13.0283 H       0      r0     0.0960
   1606 H            4.1103    -0.5095   -13.0859 H       0      r0     0.0531
   1607 H            5.6513    -3.0698   -12.5287 H       0      r0     0.0888
   1608 H            5.7981    -1.3326   -12.9045 H       0      r0     0.0440
   1609 H            5.2551    -1.8425    -9.2960 H       0      r0     0.1193
   1610 H            7.4099    -1.3192    -7.9403 H       0      r0     0.0839
   1611 H            9.9676    -0.8269    -8.5695 H       0      r0     0.0459
   1612 H           10.3609    -0.7377   -10.3757 H       0      r0     0.0603
   1613 H            1.8650    -2.9871   -12.1083 H       0      r0     0.1423
   1614 H            1.2286    -2.9381   -10.4740 H       0      r0     0.1332
   1615 H           -2.4104    -4.7759   -12.7017 H       0      r0     0.1153
   1616 H            0.0967    -3.1409   -13.7657 H       0      r0     0.0596
   1617 C          -11.3839   -14.6939     6.6782 C       5      r5     0.1187
   1618 O          -10.2872   -15.0509     5.5610 O       5      r5    -0.4827
   1619 C          -10.8765   -16.2785     5.2622 C       5      r5     0.1390
   1620 C          -12.0139   -16.6776     6.0311 C       5      r5    -0.0164
   1621 C          -12.3275   -15.6525     6.9801 C       5      r5    -0.0133
   1622 C          -11.3023   -13.4543     7.2454 C       0      r0     0.0086
   1623 C           -9.5281   -17.1495     3.3339 C       0      r0     0.0950
   1624 O           -9.6191   -18.2982     2.0714 O       0      r0    -0.4727
   1625 C           -8.0586   -17.5035     1.5954 C       0      r0     0.0742
   1626 C           -7.5362   -16.5388     2.4231 C       0      r0    -0.0385
   1627 C           -8.4898   -16.2928     3.5546 C       0      r0    -0.0103
   1628 C          -10.6093   -17.2137     4.2487 C       0      r0     0.0050
   1629 C          -12.3239   -12.9946     8.1444 C       5      r5     0.1294
   1630 C          -12.2127   -11.5953     8.4420 C       5      r5    -0.0340
   1631 C          -13.3481   -11.0955     9.0883 C       5      r5    -0.0282
   1632 C          -14.1064   -12.3287     9.1802 C       5      r5     0.1066
   1633 O          -13.4327   -13.6165     8.6860 O       5      r5    -0.4671
   1634 C          -15.1991   -12.0159     9.7922 C       0      r0    -0.0038
   1635 H          -12.6257   -17.5527     5.8117 H       0      r0     0.0614
   1636 H          -13.1209   -15.5950     7.6638 H       0      r0     0.0899
   1637 H          -10.4790   -12.7462     7.0005 H       0      r0     0.0554
   1638 H           -6.5870   -16.0110     2.3497 H       0      r0     0.0381
   1639 H           -8.4105   -15.5638     4.3680 H       0      r0     0.0863
   1640 H          -11.1738   -18.0547     4.0572 H       0      r0     0.0758
   1641 H          -11.4070   -11.0261     8.0930 H       0      r0     0.0369
   1642 H          -13.6079   -10.0822     9.3593 H       0      r0     0.0911
   1643 H          -15.4844   -10.9710     9.9938 H       0      r0     0.1407
   1644 H          -15.9323   -12.6966     9.9901 H       0      r0     0.1023
   1645 C           17.0416    -6.6947     4.7240 C       5      r5     0.1203
   1646 O           16.9177    -5.2304     5.0329 O       5      r5    -0.4849
   1647 C           18.1464    -5.0997     5.7254 C       5      r5     0.1140
   1648 C          -18.3778    -6.3086     5.7434 C       5      r5    -0.0437
   1649 C           18.1761    -7.3403     5.1026 C       5      r5    -0.0110
   1650 C           16.0619    -7.5496     4.0819 C       0      r0     0.0011
   1651 C          -17.4090    -3.7488     7.0182 C       5      r5     0.1393
   1652 O          -17.1803    -2.5106     7.5245 O       5      r5    -0.4349
   1653 C          -15.7316    -2.9231     8.1775 C       5      r5     0.1308
   1654 C          -15.5076    -4.3148     8.1999 C       5      r5    -0.0287
   1655 C          -16.5458    -4.8107     7.4014 C       5      r5    -0.0429
   1656 C          -18.6060    -3.9448     6.2841 C       0      r0     0.0361
   1657 C           16.0782    -8.9366     4.1240 C       5      r5     0.0966
   1658 C           14.8826    -9.3380     3.5599 C       5      r5    -0.0357
   1659 C           14.9888   -10.7730     3.7754 C       5      r5    -0.0299
   1660 C           16.2667   -11.0679     4.3748 C       5      r5     0.1030
   1661 O           17.1077    -9.9154     4.7180 O       5      r5    -0.4769
   1662 C           16.3467   -12.3304     4.4829 C       0      r0    -0.0517
   1663 H          -17.3597    -6.4668     6.1264 H       0      r0     0.0419
   1664 H           18.5364    -8.4329     4.9580 H       0      r0     0.1177
   1665 H           15.2184    -7.0563     3.5808 H       0      r0     0.0795
   1666 H          -14.7189    -4.8132     8.7156 H       0      r0     0.0584
   1667 H          -16.6000    -5.9030     7.1615 H       0      r0     0.0316
   1668 H           18.0723    -3.0334     6.2012 H       0      r0     0.1488
   1669 H           14.0561    -8.7504     3.2359 H       0      r0     0.0616
   1670 H           14.2515   -11.5358     3.5131 H       0      r0     0.1023
   1671 H           15.5885   -12.9805     4.1850 H       0      r0     0.0364
   1672 H           17.2068   -12.7393     4.9700 H       0      r0     0.0603
   1673 C           -5.5956    18.7063     1.6323 C       5      r5     0.1039
   1674 O           -5.8536    17.3500     0.8836 O       5      r5    -0.4418
   1675 C           -6.1196    16.4818     2.2648 C       5      r5     0.1524
   1676 C           -5.9922    17.4218     3.3810 C       5      r5    -0.0252
   1677 C           -5.7158    18.7655     3.0266 C       5      r5    -0.0201
   1678 C           -5.1075   -18.0549     1.2311 C       0      r0    -0.0514
   1679 C           -6.4275    15.3845     2.6680 C       0      r0     0.1443
   1680 H           -6.2491    17.0664     4.4163 H       0      r0     0.0601
   1681 H           -5.6159   -18.3845     3.7200 H       0      r0     0.0909
   1682 H           -4.7661   -17.2906     0.6611 H       0      r0     0.0435
   1683 H           -6.6312    15.1494     3.6832 H       0      r0     0.1083
   1684 C           -1.7470     4.1828     3.7639 C       5      r5     0.1602
   1685 O           -2.5039     4.6495     4.8750 O       5      r5    -0.4568
   1686 C           -3.6594     3.7137     4.6060 C       5      r5     0.1054
   1687 C           -3.5767     2.7742     3.5061 C       5      r5    -0.0480
   1688 C           -2.3678     3.1920     2.9516 C       5      r5    -0.0203
   1689 C           -0.4871     4.5269     3.5271 C       0      r0     0.1900
   1690 C           -4.8173     3.5671     5.1551 C       0      r0    -0.0310
   1691 H           -4.2588     2.0635     3.1120 H       0      r0     0.0421
   1692 H           -1.9510     2.7797     2.0670 H       0      r0     0.1005
   1693 H           -0.0371     3.9723     2.6693 H       0      r0     0.1085
   1694 H           -5.7669     3.3085     5.4556 H       0      r0     0.0652
   1695 C           -7.9928    -7.3590    -7.9433 C       5      r5     0.0972
   1696 O           -7.5871    -5.9889    -8.5188 O       5      r5    -0.4594
   1697 C           -8.9355    -5.5698    -8.7716 C       5      r5     0.1256
   1698 C          -10.0040    -6.3963    -8.5523 C       5      r5    -0.0197
   1699 C           -9.4557    -7.5605    -8.0903 C       5      r5    -0.0404
   1700 C           -7.3155    -8.2706    -7.3454 C       0      r0    -0.0473
   1701 C           -9.3195    -4.2546    -9.2659 C       0      r0     0.0069
   1702 H          -11.0066    -6.1101    -8.7960 H       0      r0     0.0854
   1703 H           -9.9095    -8.4425    -7.7153 H       0      r0     0.0363
   1704 H           -6.7100    -9.0053    -6.8592 H       0      r0     0.0540
   1705 H          -10.3236    -4.0667    -9.3555 H       0      r0     0.1157
   1706 C           -4.5005    -3.1229    -7.6207 C       5      r5     0.1249
   1707 O           -3.1074    -2.4960    -7.6187 O       5      r5    -0.5020
   1708 C           -2.7220    -3.1280    -8.8625 C       5      r5     0.1528
   1709 C           -3.7267    -4.0060    -9.5014 C       5      r5    -0.0112
   1710 C           -4.8453    -3.9926    -8.7245 C       5      r5    -0.0311
   1711 C           -5.4489    -2.8395    -6.6261 C       0      r0     0.0045
   1712 C           -1.5840    -3.0563    -9.4301 C       0      r0     0.1678
   1713 H           -3.6187    -4.5032   -10.4310 H       0      r0     0.0839
   1714 H           -5.7758    -4.4316    -8.8409 H       0      r0     0.0805
   1715 H           -6.4748    -3.0063    -6.3965 H       0      r0     0.0627
   1716 H           -0.9045    -2.3900    -8.9089 H       0      r0     0.1151
   1717 C            3.1697   -15.6657    -7.8234 C       5      r5     0.1368
   1718 O            2.8855   -15.7891    -9.1778 O       5      r5    -0.4582
   1719 C            4.2193   -15.1388    -9.6489 C       5      r5     0.1222
   1720 C            5.0168   -14.5910    -8.6903 C       5      r5    -0.0105
   1721 C            4.3857   -14.9939    -7.4783 C       5      r5     0.0006
   1722 C            2.3981   -16.1291    -6.7563 C       0      r0     0.0004
   1723 C            4.6292   -15.1495   -11.0265 C       0      r0    -0.0091
   1724 H            5.9537   -14.0346    -8.8408 H       0      r0     0.0512
   1725 H            4.7993   -14.8585    -6.5043 H       0      r0     0.0590
   1726 H            2.8957   -15.9796    -5.8261 H       0      r0     0.0603
   1727 H            5.5843   -14.6527   -11.2737 H       0      r0     0.0472
   1728 C           18.5521    -4.9052    -1.8644 C       6      r6    -0.0162
   1729 C           17.6464    -6.0032    -1.7855 C       6      r6    -0.0501
   1730 C           18.2886    -6.9629    -1.2100 C       6      r6    -0.0072
   1731 C          -17.4180    -6.9256    -0.9277 C       6      r6     0.1848
   1732 C          -15.3661    -5.6779    -2.1766 C       5      r5     0.1699
   1733 O          -15.3849    -4.2628    -2.0394 O       5      r5    -0.4894
   1734 C          -16.5816    -3.8664    -2.5451 C       5      r5     0.1913
   1735 C          -17.5269    -5.0184    -2.6983 C       5      r5     0.0191
   1736 C          -16.7084    -6.2947    -2.3654 C       5      r5     0.0239
   1737 C          -16.9089    -2.6059    -3.0207 C       0      r0     0.0342
   1738 C           18.1432    -3.5695    -1.1602 C       0      r0    -0.0042
   1739 C          -16.9556    -8.5073    -0.6235 C       0      r0     0.0155
   1740 C          -14.2796    -6.4553    -1.9854 C       0      r0     0.0364
   1741 O          -17.0717    -6.3379     0.0651 O       0      r0    -0.4763
   1742 C           16.7404    -0.4109    -3.9800 C       0      r0     0.1236
   1743 C           17.9402    -0.3347    -4.5176 C       0      r0    -0.0253
   1744 C          -18.1335    -0.9945    -3.8222 C       0      r0    -0.0276
   1745 C          -18.1557    -2.2447    -3.6320 C       0      r0     0.1199
   1746 O           18.0770    -3.2137    -4.0843 O       0      r0    -0.4905
   1747 O          -15.2821    -8.6426    -2.9131 O       5      r5    -0.4803
   1748 C          -14.2628    -7.8856    -2.2966 C       5      r5     0.1402
   1749 C          -13.1002    -8.4889    -2.0089 C       5      r5    -0.0136
   1750 C          -13.1451    -9.7225    -2.6294 C       5      r5    -0.0322
   1751 C          -14.5133   -10.0542    -3.0696 C       5      r5     0.1013
   1752 O           16.6813    -2.7609     0.6540 O       5      r5    -0.4817
   1753 C           16.5110    -3.2839     2.2108 C       5      r5     0.1082
   1754 C           17.3929    -4.4508     2.2860 C       5      r5    -0.0035
   1755 C           18.0283    -4.6827     1.0688 C       5      r5    -0.0047
   1756 C           17.5462    -3.6675     0.2502 C       5      r5     0.1576
   1757 C          -18.0509    -9.2717     0.1077 C       5      r5     0.1372
   1758 C          -18.5497   -10.4310    -0.5348 C       5      r5    -0.0120
   1759 C           17.5763   -10.7255     0.0379 C       5      r5    -0.0202
   1760 C           17.3380    -9.6793     1.1108 C       5      r5     0.0867
   1761 O           18.5647    -8.7185     1.1594 O       5      r5    -0.4540
   1762 C           15.9201    -2.7456     3.1179 C       0      r0    -0.0040
   1763 C          -14.9649   -11.0882    -3.4905 C       0      r0    -0.0274
   1764 H           16.6024    -6.0729    -2.1086 H       0      r0     0.0560
   1765 H           17.6724    -7.8441    -0.9883 H       0      r0     0.0876
   1766 H          -17.8892    -5.1937    -3.7295 H       0      r0     0.1027
   1767 H          -16.7918    -7.1323    -3.0409 H       0      r0     0.0957
   1768 H          -16.2009    -1.8715    -2.8323 H       0      r0     0.0980
   1769 H          -18.3325    -2.8181    -1.2806 H       0      r0     0.1099
   1770 H           17.3719    -3.3665    -1.8687 H       0      r0     0.0858
   1771 H          -16.5490    -9.0066    -1.4619 H       0      r0     0.0880
   1772 H          -16.0345    -8.5319    -0.0435 H       0      r0     0.0984
   1773 H          -13.2523    -6.0617    -1.8409 H       0      r0     0.1422
   1774 H           17.9454     0.2832    -5.4206 H       0      r0     0.0426
   1775 H          -17.3011    -0.3047    -3.4957 H       0      r0     0.0537
   1776 H          -12.3018    -8.0831    -1.4812 H       0      r0     0.0595
   1777 H          -12.3942   -10.4873    -2.6742 H       0      r0     0.0333
   1778 H           17.5676    -5.0433     3.1950 H       0      r0     0.1092
   1779 H          -18.5597    -5.4981     0.8484 H       0      r0     0.1319
   1780 H          -18.0918   -10.8903    -1.3996 H       0      r0     0.0661
   1781 H           16.8172   -11.4423    -0.2480 H       0      r0     0.0586
   1782 H           16.0564    -3.0473     4.1607 H       0      r0     0.0997
   1783 H           15.1994    -1.9276     2.9738 H       0      r0     0.0663
   1784 H          -14.2470   -11.9534    -3.5417 H       0      r0     0.0390
   1785 H          -16.0100   -11.1692    -3.8187 H       0      r0     0.0611
   1786 C           13.4467   -11.9607    -1.7318 C       6      r6    -0.0200
   1787 C           13.8816   -13.2757    -1.9938 C       6      r6    -0.0494
   1788 C           12.7836   -14.0556    -1.8663 C       6      r6    -0.0478
   1789 C           11.3637   -13.5770    -1.9070 C       6      r6     0.0899
   1790 C           10.1267   -11.6816    -0.6027 C       5      r5     0.1721
   1791 O           10.5342   -10.4010    -0.9829 O       5      r5    -0.4844
   1792 C           11.8749   -10.3308    -0.6724 C       5      r5     0.1447
   1793 C           12.4632   -11.6502    -0.6534 C       5      r5     0.0052
   1794 C           11.2463   -12.6857    -0.6009 C       5      r5     0.0341
   1795 C           12.5271    -9.1632    -0.2951 C       0      r0     0.0007
   1796 C           14.1307   -10.7521    -2.3560 C       0      r0    -0.0253
   1797 C           10.4167   -14.7667    -1.8659 C       0      r0     0.0034
   1798 C            8.8954   -11.9823    -0.0662 C       0      r0     0.0167
   1799 O           10.8358   -12.6447    -3.1502 O       0      r0    -0.4903
   1800 C           15.6240    -7.6377     0.8173 C       0      r0     0.1292
   1801 C           15.9492    -9.0190     0.7647 C       0      r0     0.0110
   1802 C           14.7602    -9.7509     0.4335 C       0      r0    -0.0284
   1803 C           13.8266    -8.8301     0.2030 C       0      r0     0.0750
   1804 O           14.1362    -7.1425     0.4728 O       0      r0    -0.4677
   1805 O            9.5546   -14.2356     0.6773 O       5      r5    -0.4959
   1806 C            8.6453   -13.2125     0.6219 C       5      r5     0.1311
   1807 C            7.4775   -13.3047     1.4206 C       5      r5    -0.0209
   1808 C            7.3639   -14.5627     2.0723 C       5      r5    -0.0540
   1809 C            8.5970   -15.1258     1.6259 C       5      r5     0.0870
   1810 O           16.5098   -10.4406    -2.9197 O       5      r5    -0.4572
   1811 C           17.4288   -10.9518    -4.2782 C       5      r5     0.0759
   1812 C           16.4935   -11.8209    -4.9660 C       5      r5    -0.0220
   1813 C           15.2386   -11.8214    -4.3552 C       5      r5    -0.0208
   1814 C           15.4143   -11.0594    -3.2130 C       5      r5     0.1504
   1815 C           10.4727   -15.7292    -3.0081 C       0      r0     0.1425
   1816 C           11.2533   -15.3904    -4.0694 C       0      r0    -0.0090
   1817 C           11.2548   -16.1612    -5.2591 C       0      r0    -0.0233
   1818 C           10.3347   -17.0835    -5.7026 C       0      r0     0.0219
   1819 O            9.6550   -16.7660    -2.8783 O       0      r0    -0.4995
   1820 C           18.5815   -10.7002    -4.5205 C       0      r0    -0.0411
   1821 C            8.7455   -16.2785     2.1549 C       0      r0    -0.0298
   1822 H           14.8752   -13.5923    -2.2845 H       0      r0     0.0576
   1823 H           12.9181   -15.1109    -1.9221 H       0      r0     0.0302
   1824 H           12.9584   -11.8295     0.3954 H       0      r0     0.1063
   1825 H           11.3072   -13.3983     0.2952 H       0      r0     0.1118
   1826 H           12.0120    -8.1952    -0.2900 H       0      r0     0.1014
   1827 H           13.4082   -10.0961    -2.8972 H       0      r0     0.0581
   1828 H           14.2791    -9.9275    -1.5971 H       0      r0     0.0638
   1829 H           10.5289   -15.4320    -0.9585 H       0      r0     0.0865
   1830 H            9.3444   -14.3663    -1.7736 H       0      r0     0.0839
   1831 H            8.1641   -11.1775    -0.0588 H       0      r0     0.1180
   1832 H           17.2631   -10.1157     2.1128 H       0      r0     0.0978
   1833 H           14.6676   -10.8170     0.3903 H       0      r0     0.0478
   1834 H            6.8184   -12.4707     1.3713 H       0      r0     0.0702
   1835 H            6.6723   -15.0107     2.7447 H       0      r0     0.0230
   1836 H           16.8248   -12.4322    -5.8114 H       0      r0     0.0601
   1837 H           14.3556   -12.3641    -4.6982 H       0      r0     0.0620
   1838 H           11.9427   -14.5789    -4.0185 H       0      r0     0.0798
   1839 H           11.8747   -15.8072    -6.1664 H       0      r0     0.0754
   1840 H          -18.0583   -11.0874    -5.3465 H       0      r0     0.0426
   1841 H          -18.1636    -9.9617    -3.8528 H       0      r0     0.0723
   1842 H            8.0093   -16.7064     2.8259 H       0      r0     0.0425
   1843 H            9.5922   -16.8626     1.9982 H       0      r0     0.1033
   1844 C          -15.9962    -3.4646     2.8206 C       6      r6     0.1200
   1845 C          -16.8701    -4.6533     3.2901 C       6      r6    -0.0135
   1846 C          -16.4152    -5.9388     3.1935 C       6      r6    -0.0131
   1847 C          -15.0544    -5.8664     2.7772 C       6      r6     0.0121
   1848 C          -13.2523    -4.7120     1.2394 C       5      r5     0.1200
   1849 O          -13.1127    -3.1893     1.2057 O       5      r5    -0.5043
   1850 C          -14.3569    -2.8086     0.9303 C       5      r5     0.1631
   1851 C          -15.4398    -3.7690     1.3549 C       5      r5     0.0161
   1852 C          -14.6929    -5.1457     1.3749 C       5      r5     0.0155
   1853 C          -14.7519    -1.6828     0.2043 C       0      r0     0.0150
   1854 C          -16.9226    -2.2469     2.7201 C       0      r0     0.0175
   1855 C          -14.0942    -6.6404     3.4900 C       0      r0    -0.0013
   1856 C          -12.2272    -5.5409     1.1296 C       0      r0     0.0050
   1857 O          -14.9019    -3.1769     3.6875 O       0      r0    -0.5838
   1858 C          -18.1087    -0.7116    -0.5177 C       5      r5     0.0952
   1859 C          -17.4311     0.4037    -1.0639 C       5      r5    -0.0407
   1860 C          -16.0894    -0.0166    -0.7591 C       5      r5    -0.0067
   1861 C          -16.0660    -1.2429    -0.1000 C       5      r5     0.1340
   1862 O          -17.2485    -1.8622     0.1237 O       5      r5    -0.5060
   1863 O          -13.4887    -7.7313     0.9500 O       0      r0    -0.5794
   1864 C          -12.3289    -7.0407     1.0551 C       0      r0     0.1367
   1865 C          -10.9994    -7.3682     1.0597 C       0      r0    -0.0342
   1866 C          -10.5425    -8.7655     0.8514 C       0      r0    -0.0406
   1867 C          -11.2716    -9.8356     0.3779 C       0      r0    -0.0166
   1868 O          -18.4865    -1.7139     4.3760 O       0      r0    -0.4916
   1869 C          -14.9558     0.7484     5.7940 C       0      r0     0.1924
   1870 C          -16.1990     0.0162     5.5200 C       0      r0     0.0265
   1871 C          -16.1734    -0.9581     4.4544 C       0      r0     0.0107
   1872 C          -17.2475    -1.7105     4.0536 C       0      r0     0.1844
   1873 C          -14.3826    -7.0830     4.8242 C       3      r3    -0.0034
   1874 C          -13.8565    -6.6951     6.0441 C       3      r3    -0.0433
   1875 C          -12.3223    -8.2439     6.0674 C       0      r0     0.0140
   1876 C          -11.5088    -7.6701     7.2832 C       0      r0     0.1155
   1877 O          -10.0823    -7.8673     7.1531 O       0      r0    -0.5708
   1878 C          -12.0334    -7.2081     8.2798 C       0      r0    -0.0217
   1879 C           17.9053    -0.5274    -0.7799 C       0      r0    -0.0414
   1880 H          -17.7869    -4.4174     3.7523 H       0      r0     0.0698
   1881 H          -16.9309    -6.8111     3.5903 H       0      r0     0.0770
   1882 H          -16.3345    -3.7281     0.7802 H       0      r0     0.1080
   1883 H          -15.0738    -5.7810     0.6209 H       0      r0     0.1378
   1884 H          -14.0032    -0.9502    -0.0882 H       0      r0     0.0645
   1885 H          -16.4214    -1.4965     2.0450 H       0      r0     0.0721
   1886 H          -17.8796    -2.4302     2.2253 H       0      r0     0.1111
   1887 H          -13.2759    -8.6611     1.1249 H       0      r0     0.2759
   1888 H          -13.1595    -6.5551     3.0275 H       0      r0     0.0843
   1889 H          -11.3742    -4.9173     1.0827 H       0      r0     0.0726
   1890 H          -17.7087     1.2744    -1.5808 H       0      r0     0.0466
   1891 H          -15.1804     0.5660    -0.9965 H       0      r0     0.1132
   1892 H          -10.2876    -6.6388     1.0644 H       0      r0     0.0509
   1893 H           -9.5313    -9.0695     1.0021 H       0      r0     0.0669
   1894 H          -17.1113     0.1563     5.9802 H       0      r0     0.1397
   1895 H          -15.2316    -1.0477     3.9265 H       0      r0     0.0875
   1896 H          -13.2439    -5.8945     6.4246 H       0      r0     0.0434
   1897 H          -15.6186   -14.0009     4.6738 H       0      r0     0.3164
   1898 H          -13.1083    -7.1820     8.3878 H       0      r0     0.0444
   1899 H          -11.5961    -6.8266     9.1802 H       0      r0     0.0961
   1900 H           17.5818     0.3606    -1.2506 H       0      r0     0.0301
   1901 H           17.1413    -1.1480    -0.4163 H       0      r0     0.1154
   1902 C          -15.9678   -12.1748     4.5412 C       6      r6     0.1240
   1903 C          -17.1408   -11.4609     3.8906 C       6      r6    -0.0138
   1904 C          -17.8486   -11.9649     2.8496 C       6      r6    -0.0375
   1905 C          -17.1325   -13.0632     2.3786 C       6      r6    -0.0247
   1906 C          -14.9767   -14.2424     2.0931 C       5      r5     0.1599
   1907 O          -14.1749   -14.5543     3.1408 O       5      r5    -0.5067
   1908 C          -13.7570   -13.2294     3.6214 C       5      r5     0.1279
   1909 C          -14.9138   -12.2622     3.3650 C       5      r5     0.0023
   1910 C          -15.6712   -12.9461     2.1544 C       5      r5    -0.0036
   1911 C          -12.6254   -12.8462     4.1650 C       0      r0     0.0077
   1912 C          -15.4425   -11.0978     5.6670 C       0      r0     0.0036
   1913 C          -17.9558   -14.1633     1.6345 C       0      r0    -0.0146
   1914 C          -15.0451   -15.0422     0.9558 C       0      r0     0.0142
   1915 O          -16.2295   -13.4362     5.1391 O       0      r0    -0.5940
   1916 C          -12.1305    -9.5000     5.4675 C       5      r5     0.1266
   1917 C          -10.9059   -10.1810     5.6891 C       5      r5    -0.0166
   1918 C          -10.9475   -11.4473     5.0750 C       5      r5    -0.0340
   1919 C          -12.2687   -11.5207     4.6430 C       5      r5     0.1276
   1920 O          -13.0821   -10.3615     4.6127 O       5      r5    -0.4926
   1921 O          -16.2519   -13.5183    -0.6276 O       5      r5    -0.4779
   1922 C          -15.7346   -14.7276    -0.2857 C       5      r5     0.1217
   1923 C          -15.9850   -15.8204    -1.1475 C       5      r5    -0.0246
   1924 C          -16.5675   -15.4152    -2.3344 C       5      r5    -0.0062
   1925 C          -16.8056   -14.0335    -2.0926 C       5      r5     0.1145
   1926 O          -16.5750    -9.0357     6.6845 O       0      r0    -0.4916
   1927 C           17.7723   -11.7577     8.3603 C       0      r0     0.1640
   1928 C           18.6100   -10.9245     7.7751 C       0      r0     0.0005
   1929 C          -17.3953   -11.3607     7.0409 C       0      r0     0.0038
   1930 C          -16.5558   -10.4608     6.5043 C       0      r0     0.1330
   1931 C           18.2705   -14.7580     2.5775 C       5      r5     0.1526
   1932 C           18.6229   -14.7866     3.9228 C       5      r5     0.0087
   1933 C           17.6194   -15.4144     4.7199 C       5      r5    -0.0179
   1934 C           16.7249   -15.7779     3.6844 C       5      r5     0.0912
   1935 O           17.1670   -15.3807     2.2078 O       5      r5    -0.4962
   1936 C           15.7396   -16.4360     4.2205 C       0      r0    -0.0583
   1937 C          -13.7397    -8.0760     5.7128 C       3      r3     0.0239
   1938 H          -17.5392   -10.5859     4.3106 H       0      r0     0.0867
   1939 H           18.3959   -11.7075     2.5213 H       0      r0     0.0585
   1940 H          -14.4450   -11.3028     3.1355 H       0      r0     0.0839
   1941 H          -15.6232   -12.3337     1.2722 H       0      r0     0.0834
   1942 H          -11.9980   -13.6953     4.2426 H       0      r0     0.0984
   1943 H          -14.7550   -11.7451     6.2237 H       0      r0     0.0814
   1944 H          -14.7980   -10.2607     5.2703 H       0      r0     0.1372
   1945 H          -18.4461   -13.6668     0.7415 H       0      r0     0.0782
   1946 H          -17.3897   -14.9477     1.1395 H       0      r0     0.0945
   1947 H          -14.5937   -16.0120     0.9587 H       0      r0     0.0631
   1948 H          -10.0735    -9.7638     6.2186 H       0      r0     0.0912
   1949 H          -10.1985   -12.1953     5.1216 H       0      r0     0.0522
   1950 H          -15.6638   -16.8331    -0.9998 H       0      r0     0.0507
   1951 H          -16.7299   -16.1174    -3.1125 H       0      r0     0.0976
   1952 H           18.4593    -9.8531     7.8970 H       0      r0     0.0649
   1953 H          -17.0738   -12.4019     6.9658 H       0      r0     0.1072
   1954 H          -17.7192   -14.3021     4.2754 H       0      r0     0.1215
   1955 H           17.6447   -15.6248     5.8415 H       0      r0     0.1302
   1956 H           15.7732   -16.6209     5.2611 H       0      r0     0.0485
   1957 H           14.9122   -16.8624     3.6597 H       0      r0     0.0463
   1958 H          -14.0266    -3.2513     3.1627 H       0      r0     0.2792
   1959 H           -9.8021    -7.1301     6.4930 H       0      r0     0.3296
   1960 C            8.0274   -16.4555     6.7566 C       0      r0     0.1823
   1961 C            8.8122   -17.0603     5.6415 C       0      r0    -0.0131
   1962 C            8.4106   -18.0886     4.8640 C       0      r0    -0.0166
   1963 C            7.2266   -18.8899     5.0728 C       0      r0     0.1699
   1964 C            6.9960    18.0746     3.9881 C       0      r0     0.0077
   1965 O            6.4080   -18.8301     5.9917 O       0      r0    -0.4811
   1966 O            8.3557   -15.9636     7.7644 O       0      r0    -0.4716
   1967 C            7.5241    18.5182     2.5944 C       5      r5     0.1320
   1968 C            6.5444    18.5925     1.6072 C       5      r5    -0.0014
   1969 C            7.2285    18.7824     0.4459 C       5      r5     0.0108
   1970 C            8.6442    18.8239     0.7314 C       5      r5     0.0983
   1971 O            8.8228    18.7055     2.3373 O       5      r5    -0.5075
   1972 C            9.6163   -18.9522    -0.1030 C       0      r0    -0.0401
   1973 C            6.5004   -16.3422     6.5543 C       0      r0     0.0323
   1974 C            5.8672   -11.9602     6.5798 C       0      r0     0.1330
   1975 C            7.0645   -12.4716     6.1199 C       0      r0    -0.0367
   1976 C            7.1878   -13.9167     6.1759 C       0      r0    -0.0237
   1977 C            6.0979   -14.8011     6.5498 C       0      r0     0.1743
   1978 O            5.0085   -14.6944     6.9661 O       0      r0    -0.5035
   1979 H            9.7339   -16.5731     5.4439 H       0      r0     0.0969
   1980 H            9.0910   -18.4363     4.0423 H       0      r0     0.1188
   1981 H            7.3982    17.0208     4.2255 H       0      r0     0.0757
   1982 H            5.9305    17.7393     3.9400 H       0      r0     0.1072
   1983 H            5.4822    18.4490     1.7762 H       0      r0     0.0803
   1984 H            6.8760    18.9641    -0.5364 H       0      r0     0.1179
   1985 H            9.4675   -18.6668    -1.1089 H       0      r0     0.0589
   1986 H           10.6230    18.8849     0.2290 H       0      r0     0.0497
   1987 H            6.1650   -16.7579     5.5854 H       0      r0     0.0721
   1988 H            5.9327   -16.9222     7.2442 H       0      r0     0.1073
   1989 H            7.8737   -11.7234     5.8502 H       0      r0     0.0532
   1990 H            8.1390   -14.3684     6.0126 H       0      r0     0.0639
   1991 C            9.6351    18.6680   -13.7611 C       0      r0     0.1890
   1992 C           10.9682   -18.6409   -13.5273 C       0      r0     0.0063
   1993 C           11.7632   -18.0715   -14.4234 C       0      r0    -0.0245
   1994 C           11.6080   -18.1269   -15.8845 C       0      r0     0.1708
   1995 C           12.9371   -17.7052   -16.6544 C       0      r0    -0.0094
   1996 O           10.7933   -18.5950   -16.5640 O       0      r0    -0.4754
   1997 O            9.0670    17.9463   -13.0588 O       0      r0    -0.4975
   1998 C           13.5422   -16.4389   -16.0237 C       5      r5     0.1332
   1999 C           12.6059   -15.4338   -15.6895 C       5      r5    -0.0109
   2000 C           13.3281   -14.3631   -15.3422 C       5      r5    -0.0294
   2001 C           14.7891   -14.7068   -15.4391 C       5      r5     0.0960
   2002 O           14.8532   -16.2024   -15.9450 O       5      r5    -0.4815
   2003 C           15.5939   -13.8316   -15.0812 C       0      r0    -0.0449
   2004 C            8.6667   -18.7684   -14.9410 C       0      r0     0.0475
   2005 C            8.1611    15.7359   -17.9281 C       0      r0     0.1779
   2006 C            9.0532    15.9517   -16.8903 C       0      r0    -0.0181
   2007 C            9.1034    17.0585   -15.9079 C       0      r0     0.0233
   2008 C            8.3605    18.1241   -15.9106 C       0      r0     0.1984
   2009 O            7.3883    18.5013   -16.7470 O       0      r0    -0.4875
   2010 H           11.2476   -18.5702   -12.5469 H       0      r0     0.1030
   2011 H           12.6472   -17.5459   -14.1121 H       0      r0     0.0577
   2012 H           13.7414   -18.4433   -16.6988 H       0      r0     0.0715
   2013 H           12.8829   -17.6250   -17.7589 H       0      r0     0.0508
   2014 H           11.5740   -15.4553   -15.6804 H       0      r0     0.0922
   2015 H           12.9246   -13.4020   -14.9848 H       0      r0     0.0539
   2016 H           15.2714   -12.8621   -14.7384 H       0      r0     0.0353
   2017 H           16.6515   -14.0149   -15.0730 H       0      r0     0.0602
   2018 H            7.7427   -18.3131   -14.6216 H       0      r0     0.1015
   2019 H            9.0642   -17.8549   -15.3877 H       0      r0     0.0935
   2020 H            9.8372    15.1623   -16.9139 H       0      r0     0.0475
   2021 H            9.8712    16.9594   -15.1816 H       0      r0     0.0843
   2022 C            8.7973   -14.9825    -8.8380 C       5      r5     0.1532
   2023 O            9.7442   -14.3494    -9.6205 O       5      r5    -0.4756
   2024 C            9.1609   -14.8821   -10.9862 C       5      r5     0.0927
   2025 C            8.1829   -15.8105   -10.9157 C       5      r5    -0.0212
   2026 C            7.9647   -15.9310    -9.5030 C       5      r5     0.0141
   2027 C            8.6125   -14.8019    -7.4397 C       0      r0     0.0188
   2028 C            9.4084   -14.5485   -13.5276 C       5      r5     0.1042
   2029 O           10.1829   -13.9362   -14.5583 O       5      r5    -0.4861
   2030 C            9.3132   -14.4624   -15.7713 C       5      r5     0.1089
   2031 C            8.1945   -15.2337   -15.3963 C       5      r5    -0.0271
   2032 C            8.2583   -15.2059   -13.9974 C       5      r5    -0.0333
   2033 C            9.7609   -14.3912   -12.1715 C       0      r0    -0.0107
   2034 C            7.7000   -15.4261    -6.5853 C       5      r5     0.1346
   2035 C            7.7565   -15.0341    -5.2044 C       5      r5    -0.0191
   2036 C            6.7372   -15.6733    -4.4592 C       5      r5    -0.0356
   2037 C            6.1865   -16.4816    -5.4733 C       5      r5     0.0941
   2038 O            6.7976   -16.3948    -6.9266 O       5      r5    -0.4670
   2039 C            5.2454   -17.1951    -4.9282 C       0      r0    -0.0289
   2040 H            7.6813   -16.3307   -11.6837 H       0      r0     0.0721
   2041 H            7.2026   -16.5519    -9.1018 H       0      r0     0.1352
   2042 H            9.3050   -14.1075    -7.0404 H       0      r0     0.0938
   2043 H            7.4265   -15.6975   -15.9964 H       0      r0     0.0934
   2044 H            7.4987   -15.6089   -13.3389 H       0      r0     0.0591
   2045 H           10.6268   -13.7153   -12.0648 H       0      r0     0.0708
   2046 H            8.4440   -14.3204    -4.8078 H       0      r0     0.0577
   2047 H            6.4855   -15.5021    -3.4005 H       0      r0     0.0593
   2048 H            5.0507   -17.1234    -3.8537 H       0      r0     0.0960
   2049 H            4.7669   -18.0231    -5.4614 H       0      r0     0.0902
   2050 C            2.4482    -7.2655     2.2945 C       5      r5     0.1382
   2051 O            2.9723    -6.0031     1.9851 O       5      r5    -0.4588
   2052 C            4.2947    -6.5197     1.4198 C       5      r5     0.1030
   2053 C            4.4968    -7.9174     1.4190 C       5      r5    -0.0389
   2054 C            3.2983    -8.3652     1.9875 C       5      r5    -0.0269
   2055 C            1.2040    -7.4275     2.9038 C       0      r0     0.0160
   2056 C            6.5321    -5.9182     0.3747 C       0      r0     0.1426
   2057 O            7.0970    -5.0651    -0.5176 O       0      r0    -0.5446
   2058 C            9.6001    -6.5218    -0.0822 C       0      r0     0.1786
   2059 C            8.6667    -7.3570     0.5150 C       0      r0    -0.0053
   2060 C            7.2838    -6.9120     0.9109 C       0      r0    -0.0008
   2061 C            5.1842    -5.6698     0.8605 C       0      r0     0.0084
   2062 C            0.5870    -8.6846     3.1880 C       5      r5     0.1187
   2063 C           -0.6994    -8.5972     3.7631 C       5      r5    -0.0002
   2064 C           -1.0281    -9.9183     4.0244 C       5      r5    -0.0074
   2065 C            0.0031   -10.8567     3.5574 C       5      r5     0.0922
   2066 O            1.1013    -9.9719     2.8892 O       5      r5    -0.4947
   2067 C           -0.0413   -12.0699     3.7115 C       0      r0    -0.0331
   2068 H            5.3283    -8.4999     1.0180 H       0      r0     0.0868
   2069 H            2.9730    -9.4221     2.2066 H       0      r0     0.0828
   2070 H            0.6955    -6.4726     3.1063 H       0      r0     0.1237
   2071 H            8.9111    -8.4310     0.7788 H       0      r0     0.0819
   2072 H            6.7340    -7.4792     1.6415 H       0      r0     0.0675
   2073 H            4.8411    -4.6103     0.8567 H       0      r0     0.0888
   2074 H           -1.3455    -7.7493     3.9783 H       0      r0     0.1079
   2075 H           -1.9964   -10.2613     4.4381 H       0      r0     0.0711
   2076 H           -0.9589   -12.4364     4.1154 H       0      r0     0.0835
   2077 H            0.6941   -12.8323     3.4220 H       0      r0     0.0557
   2078 C           15.1029    13.2274    -5.7949 C       5      r5     0.0907
   2079 O           16.5980    12.6541    -6.0289 O       5      r5    -0.4501
   2080 C           16.2614    11.3871    -5.5840 C       5      r5     0.1444
   2081 C           14.9665    11.1785    -5.0965 C       5      r5    -0.0006
   2082 C           14.1668    12.3532    -5.1907 C       5      r5    -0.0270
   2083 C           14.4771    14.3783    -6.0004 C       0      r0    -0.0275
   2084 C           17.1819    10.2858    -5.7164 C       0      r0     0.0327
   2085 H           14.6375    10.2211    -4.7116 H       0      r0     0.1258
   2086 H           13.1629    12.5654    -4.8968 H       0      r0     0.0860
   2087 H           14.3167    15.3727    -6.2936 H       0      r0     0.0836
   2088 H           18.0303    10.3615    -6.3622 H       0      r0     0.1539
   2089 C            6.1863   -18.1938   -18.4867 C       5      r5     0.1295
   2090 O            6.2531   -16.5849   -17.9956 O       5      r5    -0.4510
   2091 C            5.6880   -15.9811    18.3084 C       5      r5     0.1316
   2092 C            5.2223   -16.7466    17.2617 C       5      r5    -0.0281
   2093 C            5.4890   -18.0478    17.6255 C       5      r5    -0.0276
   2094 C            6.6466    18.7509   -17.9899 C       0      r0     0.1651
   2095 C            5.6559   -14.5312    18.1991 C       0      r0    -0.0100
   2096 H            4.7915   -16.4055    16.2949 H       0      r0     0.0445
   2097 H            5.2194   -18.9094    17.0506 H       0      r0     0.0456
   2098 H            6.4655    17.7210   -18.3975 H       0      r0     0.1201
   2099 H            5.1739   -14.0952    17.3390 H       0      r0     0.0584
   2100 C            8.1716    17.7345    16.8649 C       0      r0    -0.0107
   2101 O            7.3119    15.3497    18.4932 O       0      r0    -0.4654
   2102 C            6.0451    15.4550    17.5192 C       0      r0     0.1171
   2103 C            5.9244    16.5454    16.5275 C       0      r0    -0.0359
   2104 C            6.9305    17.4396    16.1551 C       0      r0    -0.0281
   2105 C            9.1766    17.9554    17.4668 C       0      r0    -0.0315
   2106 C            5.0242    14.6594    17.5199 C       0      r0     0.0036
   2107 H            5.0867    16.4133    15.8622 H       0      r0     0.0396
   2108 H            6.8567    17.9369    15.2053 H       0      r0     0.1179
   2109 H           10.0827    18.2139    17.9559 H       0      r0     0.0664
   2110 H            4.1376    14.1313    17.3827 H       0      r0     0.1007
   2111 C           -0.1431    -2.0617    -4.7754 C       5      r5     0.0837
   2112 C           -1.3838    -2.6427    -4.2447 C       5      r5    -0.0284
   2113 C           -1.0591    -3.9251    -4.3191 C       5      r5    -0.0131
   2114 C            0.2378    -4.1322    -5.1166 C       5      r5     0.1420
   2115 C            0.8718    -3.8193    -7.5863 C       5      r5     0.1708
   2116 O            1.4404    -2.6001    -7.9429 O       5      r5    -0.4738
   2117 C            0.5818    -1.6074    -7.3636 C       5      r5     0.1558
   2118 C           -0.4132    -2.1642    -6.3543 C       5      r5     0.0357
   2119 C           -0.3132    -3.7286    -6.6444 C       5      r5     0.0251
   2120 C            0.6394    -0.3000    -7.6492 C       0      r0     0.0166
   2121 C            0.1000    -0.5963    -4.2242 C       0      r0    -0.0028
   2122 C            0.7202    -5.5474    -4.8436 C       0      r0     0.0347
   2123 C            1.2104    -4.9513    -8.2733 C       0      r0     0.0280
   2124 O            1.1269    -3.0524    -4.7692 O       5      r5    -0.4673
   2125 C           -1.5417     2.8379    -5.5929 C       0      r0     0.1538
   2126 C           -0.5927     3.1380    -6.6236 C       0      r0    -0.0076
   2127 C            0.0189     2.0980    -7.2750 C       0      r0    -0.0252
   2128 C           -0.3286     0.6966    -7.0462 C       0      r0     0.1613
   2129 O           -1.2556     0.3411    -6.3567 O       0      r0    -0.5124
   2130 O           -0.5584    -6.4485    -7.4561 O       5      r5    -0.4807
   2131 C            0.5807    -6.2068    -8.1354 C       5      r5     0.1443
   2132 C            1.2437    -7.3512    -8.6798 C       5      r5    -0.0248
   2133 C            0.6356    -8.5404    -8.3120 C       5      r5    -0.0277
   2134 C           -0.4857    -7.9905    -7.5697 C       5      r5     0.1115
   2135 O            0.0353     0.3464    -1.8427 O       5      r5    -0.4819
   2136 C            0.5925    -0.3443    -0.5196 C       5      r5     0.1135
   2137 C            1.1023    -1.6454    -0.8944 C       5      r5    -0.0260
   2138 C            0.8186    -1.8539    -2.2125 C       5      r5    -0.0030
   2139 C            0.3028    -0.6805    -2.6774 C       5      r5     0.1346
   2140 C            1.2320    -5.8685    -3.6362 C       5      r5     0.1603
   2141 C            1.1307    -7.3255    -3.6215 C       5      r5    -0.0345
   2142 C            1.5076    -7.5457    -2.3148 C       5      r5    -0.0460
   2143 C            1.6505    -6.3255    -1.4975 C       5      r5     0.0709
   2144 O            1.6268    -5.0984    -2.5705 O       5      r5    -0.4602
   2145 C            0.6443     0.1680     0.6777 C       0      r0    -0.0092
   2146 C           -1.2110    -8.9826    -7.2092 C       0      r0    -0.0371
   2147 H           -2.2632    -2.2260    -3.7641 H       0      r0     0.1212
   2148 H           -1.6492    -4.7536    -4.0109 H       0      r0     0.0830
   2149 H           -1.3747    -1.6689    -6.5152 H       0      r0     0.1287
   2150 H           -1.2471    -4.2309    -6.9714 H       0      r0     0.0961
   2151 H            1.3377    -0.1120    -8.3769 H       0      r0     0.0784
   2152 H            0.9344    -0.1087    -4.6701 H       0      r0     0.1173
   2153 H           -0.7526     0.0422    -4.4189 H       0      r0     0.1084
   2154 H            0.4592    -6.2555    -5.6140 H       0      r0     0.1013
   2155 H            3.5509    -7.2164    -6.3945 H       0      r0     0.2633
   2156 H            2.0718    -4.7222    -8.8720 H       0      r0     0.0810
   2157 H           -0.2970     4.1095    -6.9870 H       0      r0     0.1037
   2158 H            0.8290     2.2745    -7.9622 H       0      r0     0.0384
   2159 H            2.1536    -7.3227    -9.2277 H       0      r0     0.0395
   2160 H            0.9518    -9.5683    -8.5551 H       0      r0     0.0941
   2161 H            1.5186    -2.3097    -0.1745 H       0      r0     0.0481
   2162 H            0.9023    -2.7774    -2.7828 H       0      r0     0.1368
   2163 H            0.8546    -8.0932    -4.3240 H       0      r0     0.0467
   2164 H            1.5623    -8.5009    -1.8958 H       0      r0     0.0311
   2165 H            1.1366    -0.3955     1.4600 H       0      r0     0.0379
   2166 H            0.1992     1.0650     1.0018 H       0      r0     0.0994
   2167 H           -1.0263    -9.9956    -7.4827 H       0      r0     0.0483
   2168 H           -2.1041    -8.8109    -6.6555 H       0      r0     0.0733
   2169 C           -2.2899    -9.4709    -1.0272 C       5      r5     0.0498
   2170 C           -1.5251   -10.4477    -1.8104 C       5      r5    -0.0610
   2171 C           -2.1338   -11.5510    -1.4496 C       5      r5    -0.0220
   2172 C           -3.2868   -11.2659    -0.4588 C       5      r5     0.1298
   2173 C           -3.4296   -10.6082     2.0383 C       5      r5     0.1726
   2174 O           -3.5362    -9.3019     2.3296 O       5      r5    -0.4817
   2175 C           -2.5852    -8.6700     1.4482 C       5      r5     0.1302
   2176 C           -1.8889    -9.6077     0.4797 C       5      r5    -0.0072
   2177 C           -2.5701   -10.9126     0.8695 C       5      r5     0.0413
   2178 C           -2.3871    -7.3734     1.5031 C       0      r0     0.0132
   2179 C           -2.1541    -8.0841    -1.8215 C       0      r0    -0.0351
   2180 C           -4.4083   -12.4638    -0.4624 C       0      r0    -0.0015
   2181 C           -4.0155   -11.6241     2.7976 C       0      r0     0.0161
   2182 O           -3.8907   -10.0262    -0.7089 O       5      r5    -0.4987
   2183 C           -0.1538    -4.9474     0.0102 C       5      r5     0.1277
   2184 C            0.4979    -6.1504    -0.4148 C       5      r5     0.0176
   2185 C           -0.2894    -7.1649     0.1725 C       5      r5    -0.0323
   2186 C           -1.3802    -6.5607     0.8514 C       5      r5     0.1373
   2187 O           -1.4820    -5.2249     0.9297 O       5      r5    -0.4689
   2188 O           -2.6757   -13.4436     1.7599 O       5      r5    -0.4768
   2189 C           -3.6753   -12.9830     2.6069 C       5      r5     0.1363
   2190 C           -4.4132   -13.9556     3.3809 C       5      r5    -0.0126
   2191 C           -3.9934   -15.2676     3.1144 C       5      r5    -0.0182
   2192 C           -2.9993   -14.9710     2.1280 C       5      r5     0.1220
   2193 O           -2.5711    -7.1963    -4.2073 O       5      r5    -0.4652
   2194 C           -3.7531    -7.5834    -5.1587 C       5      r5     0.1009
   2195 C           -4.5653    -8.5987    -4.5046 C       5      r5    -0.0078
   2196 C           -4.0343    -8.8202    -3.2350 C       5      r5    -0.0068
   2197 C           -2.9121    -8.0546    -3.1849 C       5      r5     0.1314
   2198 C           -4.4325   -13.4057    -1.6694 C       0      r0     0.1500
   2199 C           -4.4888   -12.7277    -2.8379 C       0      r0    -0.0005
   2200 C           -4.4954   -13.4872    -4.0524 C       0      r0     0.0156
   2201 C           -4.7123   -12.8960    -5.3490 C       0      r0     0.1842
   2202 O           -4.3241   -14.7459    -1.5572 O       0      r0    -0.4853
   2203 C           -4.0801    -7.1321    -6.3450 C       0      r0    -0.0407
   2204 C           -2.5159   -16.0429     1.6628 C       0      r0    -0.0292
   2205 H           -0.7602   -10.2873    -2.5134 H       0      r0     0.0325
   2206 H           -1.9062   -12.5524    -1.8115 H       0      r0     0.1279
   2207 H           -0.8383    -9.6443     0.6364 H       0      r0     0.0360
   2208 H           -1.8894   -11.7891     0.9671 H       0      r0     0.1016
   2209 H           -2.9975    -6.8176     2.2491 H       0      r0     0.0935
   2210 H           -2.6025    -7.3011    -1.1670 H       0      r0     0.0512
   2211 H           -1.1152    -7.9155    -2.0645 H       0      r0     0.0539
   2212 H           -4.1954   -13.1681     0.3551 H       0      r0     0.1137
   2213 H           -5.4079   -12.1304    -0.0631 H       0      r0     0.0578
   2214 H           -4.7103   -11.3735     3.6366 H       0      r0     0.1320
   2215 H            2.4278    -6.3033    -0.7266 H       0      r0     0.0851
   2216 H           -0.1602    -8.1968     0.0098 H       0      r0     0.0236
   2217 H           -5.1721   -13.7002     4.0829 H       0      r0     0.0574
   2218 H           -4.4466   -16.1610     3.5269 H       0      r0     0.0742
   2219 H           -5.4702    -8.9886    -4.9099 H       0      r0     0.0868
   2220 H           -4.4310    -9.4704    -2.4206 H       0      r0     0.1122
   2221 H           -4.4308   -11.7025    -2.9826 H       0      r0     0.0748
   2222 H           -4.1588   -14.5063    -4.0600 H       0      r0     0.0952
   2223 H           -4.8895    -7.5413    -6.9269 H       0      r0     0.0436
   2224 H           -3.3881    -6.4082    -6.7048 H       0      r0     0.0840
   2225 H           -2.8438   -17.0021     2.0499 H       0      r0     0.0469
   2226 H           -1.8264   -16.0513     0.8473 H       0      r0     0.0667
   2227 C            4.9202    -1.6550    -3.6985 C       6      r6     0.1075
   2228 C            4.5551    -2.6589    -2.6498 C       6      r6    -0.0297
   2229 C            4.4589    -3.9663    -2.8561 C       6      r6    -0.0166
   2230 C            4.9814    -4.1285    -4.1861 C       6      r6    -0.0098
   2231 C            5.0313    -3.4879    -6.5843 C       5      r5     0.1731
   2232 O            5.4216    -2.2621    -6.9656 O       5      r5    -0.4915
   2233 C            4.6721    -1.3182    -6.1930 C       5      r5     0.1763
   2234 C            4.0702    -1.9505    -4.9256 C       5      r5     0.0332
   2235 C            4.3005    -3.5152    -5.3444 C       5      r5     0.0286
   2236 C            4.5345    -0.0767    -6.5904 C       0      r0     0.0121
   2237 C            4.6480    -0.3671    -3.0008 C       0      r0     0.0095
   2238 C            6.1908    -5.0633    -4.4015 C       0      r0    -0.0096
   2239 C            5.2594    -4.6170    -7.4733 C       0      r0     0.0120
   2240 O            6.3662    -1.5511    -4.0059 O       0      r0    -0.5973
   2241 C            2.4262     2.1574    -4.4967 C       5      r5     0.0904
   2242 C            3.0687     3.0138    -5.5479 C       5      r5    -0.0326
   2243 C            3.7486     2.2374    -6.4633 C       5      r5    -0.0472
   2244 C            3.7180     0.9369    -5.9133 C       5      r5     0.1177
   2245 O            2.8740     0.6734    -4.8281 O       5      r5    -0.5004
   2246 O            3.8172    -6.2950    -6.1735 O       0      r0    -0.5761
   2247 C            4.6324    -5.8647    -7.2035 C       0      r0     0.1318
   2248 C            5.0078    -6.6456    -8.3016 C       0      r0    -0.0350
   2249 C            4.8666    -8.0925    -8.4044 C       0      r0    -0.0446
   2250 C            4.3050    -8.8288    -7.4056 C       0      r0    -0.0297
   2251 O            5.2095     1.0179    -1.1442 O       0      r0    -0.4921
   2252 C            7.4495     1.0180     0.1068 C       0      r0     0.1662
   2253 C            7.8533     0.0512    -0.7819 C       0      r0    -0.0117
   2254 C            6.9006    -0.4218    -1.7120 C       0      r0     0.0007
   2255 C            5.6080     0.1381    -1.8534 C       0      r0     0.1757
   2256 C            6.1297    -6.3122    -3.4710 C       3      r3     0.1124
   2257 C            4.7961    -6.9431    -3.1741 C       3      r3    -0.0158
   2258 C            6.1426    -8.5593    -2.9906 C       5      r5     0.0230
   2259 C            7.4507    -8.0698    -2.4239 C       5      r5     0.1242
   2260 O            7.4492    -6.5581    -2.5154 O       5      r5    -0.5029
   2261 C            8.4348    -8.7615    -2.1261 C       0      r0     0.0026
   2262 C            1.7752     2.6306    -3.5938 C       0      r0    -0.0445
   2263 H            4.2670    -2.3597    -1.6420 H       0      r0     0.0503
   2264 H            4.2015    -4.7226    -2.1437 H       0      r0     0.0840
   2265 H            3.0328    -1.6885    -4.7249 H       0      r0     0.1130
   2266 H            3.3839    -4.1285    -5.4098 H       0      r0     0.1314
   2267 H            5.0528     0.2377    -7.4742 H       0      r0     0.0566
   2268 H            4.5630     0.3294    -3.8379 H       0      r0     0.1045
   2269 H            3.6152    -0.3550    -2.6175 H       0      r0     0.0721
   2270 H            6.4282    -5.2144    -5.4244 H       0      r0     0.0680
   2271 H            7.2003    -4.5015    -4.1880 H       0      r0     0.1470
   2272 H            5.8499    -4.6090    -8.3566 H       0      r0     0.0630
   2273 H            2.8882     4.0332    -5.5750 H       0      r0     0.0746
   2274 H            4.2130     2.6393    -7.3082 H       0      r0     0.0275
   2275 H            5.6239    -6.2489    -9.0722 H       0      r0     0.0508
   2276 H            5.1875    -8.6080    -9.3126 H       0      r0     0.0693
   2277 H            8.8443    -0.3820    -0.8220 H       0      r0     0.1144
   2278 H            7.3447    -1.2509    -2.2890 H       0      r0     0.0924
   2279 H            3.7667    -6.6671    -3.4839 H       0      r0     0.0843
   2280 H            4.1145   -13.9899    -0.7286 H       0      r0     0.2942
   2281 H            8.4504    -9.8270    -2.1586 H       0      r0     0.0816
   2282 H            9.2757    -8.2637    -1.6381 H       0      r0     0.1038
   2283 H            1.6040     3.6745    -3.4720 H       0      r0     0.0327
   2284 H            1.2946     1.9671    -2.8362 H       0      r0     0.0942
   2285 C            3.7857   -12.0642    -0.7129 C       6      r6     0.1145
   2286 C            2.6690   -11.4043     0.1196 C       6      r6    -0.0552
   2287 C            1.5307   -12.0352     0.4855 C       6      r6    -0.0521
   2288 C            1.5140   -13.2677    -0.1955 C       6      r6    -0.0197
   2289 C            1.9013   -14.5899    -2.2754 C       5      r5     0.1401
   2290 O            3.2531   -14.7634    -2.6538 O       5      r5    -0.4953
   2291 C            3.7320   -13.4830    -2.8419 C       5      r5     0.1532
   2292 C            2.9937   -12.4678    -2.0017 C       5      r5     0.0029
   2293 C            1.6788   -13.2654    -1.6503 C       5      r5    -0.0023
   2294 C            4.7004   -13.1719    -3.7625 C       0      r0    -0.0062
   2295 C            4.7963   -10.8596    -0.9984 C       0      r0     0.0109
   2296 C            0.8298   -14.4976     0.5247 C       0      r0    -0.0125
   2297 C            0.9545   -15.5434    -2.4867 C       0      r0     0.0035
   2298 O            4.5376   -13.1959    -0.2753 O       0      r0    -0.5876
   2299 C            5.6441    -9.7297    -3.8274 C       5      r5     0.1143
   2300 C            6.4122   -10.2967    -4.9057 C       5      r5    -0.0194
   2301 C            6.1594   -11.6622    -4.9248 C       5      r5    -0.0237
   2302 C            5.1090   -11.8450    -4.0768 C       5      r5     0.0895
   2303 O            4.5264   -10.5704    -3.4891 O       5      r5    -0.5104
   2304 O           -0.9248   -14.1860    -1.6354 O       0      r0    -0.4783
   2305 C           -0.4426   -15.2151    -2.0392 C       0      r0     0.1658
   2306 C           -0.9843   -16.5319    -2.3002 C       0      r0    -0.0376
   2307 C           -2.4024   -16.6473    -2.0984 C       0      r0    -0.0303
   2308 C           -3.2324   -15.5803    -1.8454 C       0      r0     0.1786
   2309 O            6.6354    -9.9351     0.2766 O       0      r0    -0.4982
   2310 C            6.8262    -9.9875     2.7772 C       0      r0     0.1542
   2311 C            5.7372   -10.8343     2.7726 C       0      r0    -0.0406
   2312 C            5.1411   -11.1461     1.5126 C       0      r0    -0.0168
   2313 C            5.6486   -10.6194     0.3164 C       0      r0     0.1695
   2314 C            1.6924   -14.9314     1.7403 C       5      r5     0.1306
   2315 C            2.8474   -14.2281     1.8555 C       5      r5    -0.0218
   2316 C            3.4710   -14.7015     2.9713 C       5      r5    -0.0436
   2317 C            2.6680   -15.7865     3.5280 C       5      r5     0.0836
   2318 O            1.3902   -15.9507     2.6003 O       5      r5    -0.4711
   2319 C            2.9907   -16.4193     4.6226 C       0      r0    -0.0389
   2320 C            5.6455    -7.6564    -3.8743 C       3      r3     0.0073
   2321 H            2.9229   -10.4851     0.6020 H       0      r0     0.0368
   2322 H            0.7404   -11.6725     1.1717 H       0      r0     0.0759
   2323 H            2.7056   -11.6248    -2.5649 H       0      r0     0.0566
   2324 H            0.8356   -12.7866    -2.1725 H       0      r0     0.0708
   2325 H            5.1748   -13.9896    -4.2408 H       0      r0     0.0491
   2326 H            5.4673   -11.3854    -1.6543 H       0      r0     0.1138
   2327 H            4.3937    -9.9562    -1.4435 H       0      r0     0.0789
   2328 H           -0.1454   -14.1877     0.7635 H       0      r0     0.1071
   2329 H            0.6760   -15.5051     0.0007 H       0      r0     0.0700
   2330 H            1.2516   -16.4476    -2.9640 H       0      r0     0.0734
   2331 H            7.2110    -9.8073    -5.4899 H       0      r0     0.0621
   2332 H            6.6701   -12.4110    -5.5158 H       0      r0     0.0766
   2333 H           -0.3203   -17.3352    -2.5469 H       0      r0     0.0387
   2334 H           -2.8345   -17.6775    -2.0618 H       0      r0     0.0437
   2335 H            5.3216   -11.0706     3.7557 H       0      r0     0.0415
   2336 H            4.2990   -11.7828     1.5323 H       0      r0     0.0672
   2337 H            3.1769   -13.4557     1.1236 H       0      r0     0.0969
   2338 H            4.3778   -14.2995     3.3524 H       0      r0     0.0324
   2339 H            3.9588   -16.3232     5.1407 H       0      r0     0.0616
   2340 H            2.3136   -17.1640     4.9742 H       0      r0     0.0748
   2341 H            6.7848    -2.3468    -3.6981 H       0      r0     0.3257
   2342 H            7.4560    -5.7651    -1.2840 H       0      r0     0.3814
   2343 C          -12.3965    -0.5266     5.6126 C       0      r0     0.1699
   2344 C          -12.4707    -1.8573     5.1172 C       0      r0    -0.0204
   2345 C          -11.6496    -2.9080     5.3480 C       0      r0    -0.0451
   2346 C          -10.4145    -2.9113     6.1608 C       0      r0     0.1616
   2347 C          -10.0223    -4.3076     6.7265 C       0      r0     0.0008
   2348 O           -9.6933    -2.0390     6.4579 O       0      r0    -0.5184
   2349 O          -13.2445     0.3348     5.2745 O       0      r0    -0.4802
   2350 C           -8.8509    -4.8444     5.8703 C       5      r5     0.1409
   2351 C           -7.7409    -4.0867     5.7073 C       5      r5    -0.0114
   2352 C           -6.9459    -4.7545     4.7832 C       5      r5    -0.0365
   2353 C           -7.6733    -5.9022     4.3251 C       5      r5     0.0878
   2354 O           -9.0219    -6.0540     5.2314 O       5      r5    -0.4881
   2355 C           -7.3237    -6.7050     3.3369 C       0      r0    -0.0436
   2356 C          -11.5278    -0.2408     6.8122 C       0      r0     0.0228
   2357 C          -12.5942     0.9303    11.5383 C       7      r7     0.2244
   2358 C          -12.2418     1.3277    10.0824 C       0      r0     0.0059
   2359 C          -12.2250     0.4397     9.0219 C       0      r0    -0.0023
   2360 C          -11.9628     0.8757     7.7311 C       0      r0     0.1855
   2361 O          -11.7905     2.1329     7.4083 O       0      r0    -0.4867
   2362 H          -13.3341    -2.0587     4.4952 H       0      r0     0.0999
   2363 H          -11.9543    -3.8743     4.9707 H       0      r0     0.0441
   2364 H           -9.8491    -4.4035     7.8019 H       0      r0     0.1019
   2365 H          -10.8341    -5.0215     6.6718 H       0      r0     0.0603
   2366 H           -7.4889    -3.1422     6.1602 H       0      r0     0.0756
   2367 H           -5.9823    -4.4990     4.5154 H       0      r0     0.0377
   2368 H           -6.3946    -6.5501     2.7737 H       0      r0     0.0468
   2369 H           -7.9543    -7.4522     3.0345 H       0      r0     0.0646
   2370 H          -11.4514    -1.0951     7.5449 H       0      r0     0.0512
   2371 H          -10.4761    -0.0515     6.5219 H       0      r0     0.0992
   2372 H          -12.0757     2.3716     9.9225 H       0      r0     0.0817
   2373 H          -12.3172    -0.6954     9.1414 H       0      r0     0.0447
   2374 C          -13.5655   -13.1917   -15.8318 C       0      r0     0.1823
   2375 C          -13.3817   -11.7968   -15.5144 C       0      r0    -0.0022
   2376 C          -12.1995   -11.1120   -15.4909 C       0      r0    -0.0129
   2377 C          -10.8645   -11.6077   -15.5516 C       0      r0     0.1628
   2378 C           -9.7800   -10.6219   -15.6630 C       0      r0     0.0121
   2379 O          -10.4916   -12.8275   -15.6153 O       0      r0    -0.4887
   2380 O          -14.5741   -13.7657   -15.7088 O       0      r0    -0.5031
   2381 C           -9.4564   -10.1001   -16.9879 C       5      r5     0.1503
   2382 C          -10.3399   -10.3767   -18.0238 C       5      r5    -0.0082
   2383 C           -9.8846    -9.8918    18.1444 C       5      r5    -0.0187
   2384 C           -8.5966    -9.4233    18.5871 C       5      r5     0.0790
   2385 O           -8.3212    -9.5173   -17.1512 O       5      r5    -0.4922
   2386 C           -7.9444    -9.0149    17.6306 C       0      r0    -0.0185
   2387 C          -12.5873   -14.0165   -16.7471 C       0      r0     0.0461
   2388 C          -11.6469   -17.6830   -14.4026 C       0      r0    -0.0141
   2389 C          -12.1299   -16.4609   -13.9111 C       0      r0    -0.0206
   2390 C          -12.4381   -15.3015   -14.7527 C       0      r0     0.0320
   2391 C          -12.1521   -15.2250   -16.0641 C       0      r0     0.1874
   2392 O          -11.4940   -16.0165   -16.8989 O       0      r0    -0.4968
   2393 H          -14.2396   -11.1520   -15.3471 H       0      r0     0.0572
   2394 H          -12.1107   -10.0255   -15.3822 H       0      r0     0.0939
   2395 H           -9.9869    -9.7834   -15.0090 H       0      r0     0.0752
   2396 H           -8.8871   -10.9281   -15.1119 H       0      r0     0.0855
   2397 H          -11.2676   -10.9004   -17.9201 H       0      r0     0.0622
   2398 H          -10.3890    -9.8466    17.1966 H       0      r0     0.0865
   2399 H           -8.2676    -8.9451    16.5915 H       0      r0     0.1272
   2400 H           -6.9027    -8.6837    17.7662 H       0      r0     0.0693
   2401 H          -13.1962   -14.2933   -17.6044 H       0      r0     0.0974
   2402 H          -11.7837   -13.4463   -17.1990 H       0      r0     0.1007
   2403 H          -12.3191   -16.4262   -12.8552 H       0      r0     0.0773
   2404 H          -12.9041   -14.4220   -14.2733 H       0      r0     0.1219
   2405 C          -12.3528     9.0684    10.2063 C       5      r5     0.1538
   2406 O          -11.2753     9.8083     9.7915 O       5      r5    -0.4799
   2407 C          -11.8813    11.1820    10.2266 C       5      r5     0.1006
   2408 C          -13.1934    11.1584    10.6944 C       5      r5    -0.0215
   2409 C          -13.5136     9.8109    10.6612 C       5      r5     0.0063
   2410 C          -12.3005     7.6855    10.0333 C       0      r0     0.0215
   2411 C          -11.3165    13.5681    10.5587 C       5      r5     0.1007
   2412 O          -10.0840    14.6781    10.4254 O       5      r5    -0.4541
   2413 C          -10.9184    15.6876    11.1739 C       5      r5     0.1254
   2414 C          -12.2496    15.2904    11.5702 C       5      r5    -0.0238
   2415 C          -12.4739    13.9565    11.1785 C       5      r5    -0.0283
   2416 C          -11.0117    12.2818    10.1366 C       0      r0     0.0141
   2417 C          -13.3534     6.8553    10.4976 C       5      r5     0.1179
   2418 C          -13.2405     5.4836    10.2032 C       5      r5    -0.0267
   2419 C          -14.2290     4.8917    10.9495 C       5      r5    -0.0138
   2420 C          -15.0018     5.8734    11.7402 C       5      r5     0.1107
   2421 O          -14.3329     7.2434    11.4879 O       5      r5    -0.4695
   2422 C          -15.9390     5.6124    12.4695 C       0      r0    -0.0155
   2423 H          -13.8389    11.9820    10.9879 H       0      r0     0.0649
   2424 H          -14.4384     9.4413    11.0394 H       0      r0     0.1154
   2425 H          -11.4030     7.3853     9.5454 H       0      r0     0.0875
   2426 H          -12.9415    15.8785    12.1242 H       0      r0     0.0468
   2427 H          -13.3795    13.5095    11.3389 H       0      r0     0.0484
   2428 H          -10.0026    12.1558     9.7580 H       0      r0     0.0905
   2429 H          -12.5492     4.9640     9.6085 H       0      r0     0.0578
   2430 H          -14.4296     3.8333    11.0360 H       0      r0     0.0745
   2431 H          -16.3945     4.6317    12.6125 H       0      r0     0.0487
   2432 H          -16.5145     6.2929    13.0463 H       0      r0     0.1039
   2433 C          -17.7972   -18.6619     7.2390 C       5      r5     0.1240
   2434 O          -16.9838    17.9650     7.0756 O       5      r5    -0.4711
   2435 C          -15.7361    18.5615     7.1555 C       5      r5     0.1283
   2436 C          -15.7493   -17.9660     7.2971 C       5      r5    -0.0277
   2437 C          -17.0712   -17.4860     7.3837 C       5      r5    -0.0016
   2438 C           18.1001   -18.7671     7.2481 C       0      r0     0.0144
   2439 C          -13.1653    18.3755     7.1058 C       0      r0     0.1304
   2440 O          -12.0794    17.9310     6.3809 O       0      r0    -0.5420
   2441 C          -10.7775   -18.4886     8.3468 C       0      r0     0.1657
   2442 C          -11.9645   -18.0920     8.7405 C       0      r0    -0.0119
   2443 C          -13.2495   -18.7050     8.1218 C       0      r0    -0.0379
   2444 C          -14.5001    17.8630     6.9293 C       0      r0     0.0095
   2445 C           17.2062   -17.6694     7.3355 C       5      r5     0.1228
   2446 C           15.8282   -18.0275     7.2812 C       5      r5    -0.0282
   2447 C           15.0044   -16.8558     7.4289 C       5      r5    -0.0487
   2448 C           15.9912   -15.8950     7.5454 C       5      r5     0.0800
   2449 O           17.5650   -16.3442     7.4781 O       5      r5    -0.4926
   2450 C           15.4156   -14.7370     7.7096 C       0      r0    -0.0408
   2451 H          -14.8397   -17.3600     7.2782 H       0      r0     0.0350
   2452 H          -17.4545   -16.4883     7.5889 H       0      r0     0.1027
   2453 H           17.6514    18.1831     7.1827 H       0      r0     0.1030
   2454 H          -12.0218   -17.4077     9.5627 H       0      r0     0.0859
   2455 H          -14.1599   -18.5578     8.5519 H       0      r0     0.0383
   2456 H          -14.4981    16.7851     6.7653 H       0      r0     0.1269
   2457 H           15.4301    18.8809     7.2305 H       0      r0     0.1095
   2458 H           13.9059   -16.8557     7.4266 H       0      r0     0.0496
   2459 H           14.3196   -14.6790     7.6950 H       0      r0     0.0331
   2460 H           15.8939   -13.7758     7.9194 H       0      r0     0.1162
   2461 C           -5.1807    13.2506    15.4818 C       5      r5     0.1248
   2462 O           -5.3392    13.1014    14.0006 O       5      r5    -0.4690
   2463 C           -4.1660    13.9010    13.7089 C       5      r5     0.1573
   2464 C           -3.2825    14.4674    14.7125 C       5      r5    -0.0289
   2465 C           -3.9048    13.8730    15.8215 C       5      r5    -0.0072
   2466 C           -6.0472    12.8470    16.3978 C       0      r0    -0.0172
   2467 C           -3.7330    14.3524    12.5644 C       0      r0     0.1533
   2468 H           -2.3755    15.0325    14.6843 H       0      r0     0.0918
   2469 H           -3.5069    13.9329    16.7928 H       0      r0     0.0572
   2470 H           -6.4507    12.5678    17.3040 H       0      r0     0.0671
   2471 H           -2.8787    15.0240    12.3950 H       0      r0     0.0870
   2472 C          -11.3003     7.1029   -16.5409 C       5      r5     0.0992
   2473 O          -11.0370     8.6061   -16.2122 O       5      r5    -0.4703
   2474 C          -11.8830     8.6017   -15.0055 C       5      r5     0.1233
   2475 C          -12.4987     7.4165   -14.5866 C       5      r5    -0.0213
   2476 C          -12.1702     6.4979   -15.5464 C       5      r5    -0.0354
   2477 C          -10.9485     6.4712   -17.6364 C       0      r0    -0.0438
   2478 C          -12.2157     9.8250   -14.3365 C       0      r0    -0.0128
   2479 H          -13.1226     7.3209   -13.6985 H       0      r0     0.0682
   2480 H          -12.5402     5.5059   -15.5993 H       0      r0     0.0374
   2481 H          -10.8087     5.7458   -18.4616 H       0      r0     0.0371
   2482 H          -12.9987     9.7776   -13.6130 H       0      r0     0.0476
   2483 C          -11.0327    17.7973   -14.0716 C       5      r5     0.1429
   2484 O          -10.4302    16.6468   -14.5924 O       5      r5    -0.4751
   2485 C          -10.4865    15.8432   -13.2360 C       5      r5     0.0919
   2486 C          -11.0761    16.6736   -12.2142 C       5      r5    -0.0296
   2487 C          -11.3887    17.8956   -12.7259 C       5      r5    -0.0092
   2488 C          -11.1799   -18.9126   -14.8506 C       0      r0    -0.0061
   2489 C          -10.1211    14.5935   -13.0397 C       0      r0    -0.0469
   2490 H          -11.1956    16.3767   -11.1983 H       0      r0     0.0522
   2491 H          -11.8015    18.7003   -12.1248 H       0      r0     0.0805
   2492 H          -10.9011   -18.9158   -15.9070 H       0      r0     0.0758
   2493 H           -9.9233    13.6209   -12.7030 H       0      r0     0.0337
   2494 C           -1.6350     6.6772    -8.7044 C       5      r5     0.1284
   2495 O           -2.5747     5.9236    -7.8578 O       5      r5    -0.4457
   2496 C           -2.5463     4.6730    -8.7518 C       5      r5     0.1059
   2497 C           -1.6842     4.8528    -9.8788 C       5      r5    -0.0380
   2498 C           -1.1675     6.1093    -9.9007 C       5      r5    -0.0277
   2499 C           -1.2397     8.0247    -8.4664 C       0      r0    -0.0181
   2500 C           -3.0982     3.4981    -8.4756 C       0      r0    -0.0223
   2501 H           -1.5427     4.1207   -10.7169 H       0      r0     0.0383
   2502 H           -0.5066     6.5519   -10.6475 H       0      r0     0.1038
   2503 H           -0.7215     8.4793    -9.2944 H       0      r0     0.0372
   2504 H           -3.7624     2.7229    -8.0202 H       0      r0     0.0596
   2505 C           17.7526   -18.9155     0.7337 C       5      r5     0.0785
   2506 C           16.9509    18.8499     1.9864 C       5      r5    -0.0372
   2507 C           16.6607    17.5868     1.8592 C       5      r5    -0.0063
   2508 C           17.1821    17.0211     0.5814 C       5      r5     0.1352
   2509 C           16.6599    17.0442    -1.9102 C       5      r5     0.1757
   2510 O           17.3652    18.0132    -2.5828 O       5      r5    -0.4727
   2511 C           17.1332   -18.6910    -1.9284 C       5      r5     0.1440
   2512 C           16.6655   -18.7865    -0.4810 C       5      r5    -0.0154
   2513 C           16.2663    17.5279    -0.5231 C       5      r5     0.0279
   2514 C           17.3901   -17.4957    -2.5555 C       0      r0     0.0206
   2515 C          -18.6095   -17.6885     0.9647 C       0      r0    -0.0126
   2516 C           17.2932    15.4809     0.6761 C       0      r0     0.0073
   2517 C           16.2873    15.8655    -2.4577 C       0      r0     0.0079
   2518 O           18.4402    17.6002     0.3142 O       5      r5    -0.4579
   2519 C           17.0448   -14.0179    -1.8437 C       5      r5     0.1133
   2520 C           16.5953   -14.5853    -0.6056 C       5      r5    -0.0231
   2521 C           16.7030   -15.9854    -0.7531 C       5      r5    -0.0306
   2522 C           17.2012   -16.1967    -2.0375 C       5      r5     0.1248
   2523 O           17.5946   -15.1002    -2.8025 O       5      r5    -0.4626
   2524 O           14.7225    15.2227    -0.6222 O       5      r5    -0.4900
   2525 C           15.4412    14.9475    -1.7719 C       5      r5     0.1106
   2526 C           15.2542    13.6741    -2.3229 C       5      r5    -0.0376
   2527 C           14.5582    12.7865    -1.4484 C       5      r5    -0.0417
   2528 C           14.2395    13.6900    -0.4358 C       5      r5     0.0933
   2529 O          -16.8046   -17.0023     2.5444 O       5      r5    -0.4730
   2530 C          -15.7747   -17.9196     3.2801 C       5      r5     0.1037
   2531 C          -16.1960    18.6045     3.1735 C       5      r5    -0.0180
   2532 C          -17.2962    18.5717     2.3596 C       5      r5     0.0091
   2533 C          -17.5351   -18.0160     2.0514 C       5      r5     0.1518
   2534 C           17.7578    14.9553     2.0783 C       5      r5     0.1632
   2535 C           17.2650    13.7022     2.3216 C       5      r5    -0.0167
   2536 C           17.4630    13.4293     3.6083 C       5      r5    -0.0322
   2537 C           18.0759    14.7009     4.2256 C       5      r5     0.0961
   2538 O           18.3984    15.6545     3.0275 O       5      r5    -0.4594
   2539 C          -14.7625   -17.5690     3.8680 C       0      r0    -0.0328
   2540 C           13.5800    13.1106     0.4785 C       0      r0    -0.0243
   2541 H           16.6383   -18.4863     2.7857 H       0      r0     0.0535
   2542 H           15.9918    17.0203     2.4919 H       0      r0     0.0653
   2543 H           15.8534   -18.1038    -0.2371 H       0      r0     0.0162
   2544 H           15.2501    17.3954    -0.2152 H       0      r0     0.0704
   2545 H           17.7038   -17.5857    -3.5569 H       0      r0     0.1072
   2546 H          -18.1829   -17.4439    -0.0035 H       0      r0     0.0627
   2547 H           18.2260   -16.7461     1.3373 H       0      r0     0.1180
   2548 H           16.2895    15.1222     0.4879 H       0      r0     0.0933
   2549 H           17.9368    15.1016    -0.1656 H       0      r0     0.0919
   2550 H           16.6836    15.6051    -3.3942 H       0      r0     0.0633
   2551 H           16.1890   -14.0572     0.2474 H       0      r0     0.0623
   2552 H           16.4512   -16.6654     0.0163 H       0      r0     0.0440
   2553 H           15.6824    13.4140    -3.2566 H       0      r0     0.0476
   2554 H           14.3178    11.7300    -1.6112 H       0      r0     0.0475
   2555 H          -15.8071    17.6561     3.5980 H       0      r0     0.0764
   2556 H          -17.8952    17.7036     2.0891 H       0      r0     0.1456
   2557 H           16.7839    13.0444     1.6238 H       0      r0     0.0546
   2558 H           17.2332    12.4977     4.1337 H       0      r0     0.0514
   2559 H          -14.0303   -18.2472     4.2757 H       0      r0     0.0382
   2560 H          -14.5508   -16.5133     3.9289 H       0      r0     0.1120
   2561 H           13.3858    12.0749     0.5103 H       0      r0     0.0470
   2562 H           13.2093    13.6561     1.3099 H       0      r0     0.1353
   2563 C           13.1369    13.7213     5.6560 C       5      r5     0.0728
   2564 C           12.9765    12.6869     4.6387 C       5      r5    -0.0169
   2565 C           12.0044    11.9979     5.1969 C       5      r5    -0.0189
   2566 C           11.6642    12.3988     6.6095 C       5      r5     0.1240
   2567 C           12.9290    12.2893     8.9057 C       5      r5     0.1417
   2568 O           13.4932    13.5255     9.2788 O       5      r5    -0.4790
   2569 C           14.1130    13.9962     8.0602 C       5      r5     0.1326
   2570 C           13.9538    13.1259     6.8280 C       5      r5    -0.0081
   2571 C           12.9758    12.0483     7.4335 C       5      r5     0.0216
   2572 C           14.7098    15.2172     8.0397 C       0      r0     0.0102
   2573 C           13.6278    15.0751     5.0840 C       0      r0    -0.0220
   2574 C           10.3189    11.8101     7.0947 C       0      r0     0.0115
   2575 C           12.4845    11.3582     9.8014 C       0      r0    -0.0004
   2576 O           11.6880    13.7758     6.6302 O       5      r5    -0.4905
   2577 C           16.8535    16.7370     5.4851 C       5      r5     0.1319
   2578 C           17.1999    15.3530     5.3196 C       5      r5     0.0100
   2579 C           16.5159    14.7821     6.4303 C       5      r5    -0.0373
   2580 C           15.6641    15.6825     7.0435 C       5      r5     0.1208
   2581 O           15.7863    17.0123     6.6372 O       5      r5    -0.4889
   2582 O           11.8008     9.5333     8.1841 O       5      r5    -0.4826
   2583 C           12.0092    10.0223     9.4717 C       5      r5     0.1343
   2584 C           11.8283     9.1132    10.5407 C       5      r5    -0.0032
   2585 C           11.3776     7.8408    10.1249 C       5      r5    -0.0099
   2586 C           11.3498     8.1247     8.7110 C       5      r5     0.1266
   2587 O           12.6582    14.8782     2.7231 O       5      r5    -0.4695
   2588 C           11.4042    15.7445     2.0938 C       5      r5     0.0826
   2589 C           11.0205    16.7018     3.1066 C       5      r5    -0.0282
   2590 C           11.7758    16.4734     4.2707 C       5      r5    -0.0299
   2591 C           12.6403    15.4686     3.9464 C       5      r5     0.1436
   2592 C            9.6231    12.6863     8.2107 C       0      r0     0.1953
   2593 C           10.1766    13.9153     8.6898 C       0      r0     0.0108
   2594 C            9.4698    14.7474     9.5430 C       0      r0    -0.0219
   2595 C            8.1102    14.4432     9.8758 C       0      r0     0.1838
   2596 O            8.5719    12.2575     8.5337 O       0      r0    -0.4933
   2597 C           10.9181    15.5646     0.9938 C       0      r0    -0.0234
   2598 C           10.9413     7.1086     8.1023 C       0      r0     0.0022
   2599 H           13.4093    12.5716     3.6659 H       0      r0     0.0767
   2600 H           11.4944    11.1874     4.7536 H       0      r0     0.0475
   2601 H           14.8944    12.7272     6.4631 H       0      r0     0.0259
   2602 H           13.2017    10.9726     7.2568 H       0      r0     0.0815
   2603 H           14.4762    15.7008     9.0129 H       0      r0     0.0917
   2604 H           13.6105    15.8846     5.7958 H       0      r0     0.0697
   2605 H           14.6267    15.0264     4.6503 H       0      r0     0.0573
   2606 H            9.7024    11.7655     6.1766 H       0      r0     0.0600
   2607 H           10.5345    10.7623     7.3411 H       0      r0     0.1198
   2608 H           12.6111    11.6248    10.8692 H       0      r0     0.0679
   2609 H          -18.2988    14.3858     4.7167 H       0      r0     0.1058
   2610 H           16.5899    13.7425     6.7159 H       0      r0     0.0261
   2611 H           11.9498     9.3032    11.5673 H       0      r0     0.0907
   2612 H           11.2095     6.9432    10.6833 H       0      r0     0.0712
   2613 H           10.2813    17.4814     3.0103 H       0      r0     0.1048
   2614 H           11.7026    16.9481     5.2085 H       0      r0     0.0380
   2615 H           11.1733    14.2656     8.3553 H       0      r0     0.1332
   2616 H            9.9666    15.6537     9.8821 H       0      r0     0.0510
   2617 H           10.1218    16.2996     0.8236 H       0      r0     0.0736
   2618 H           11.3125    14.9115     0.1836 H       0      r0     0.0795
   2619 H           10.6695     6.2152     8.6449 H       0      r0     0.0662
   2620 H           10.8821     7.1558     6.9911 H       0      r0     0.1518
   2621 C          -14.3084    17.3373    -2.0311 C       6      r6     0.1279
   2622 C          -13.4365    16.1019    -2.3485 C       6      r6    -0.0090
   2623 C          -13.8920    14.8504    -1.9902 C       6      r6    -0.0520
   2624 C          -15.2737    14.5986    -1.6354 C       6      r6    -0.0240
   2625 C          -17.0790    14.9358    -2.6935 C       5      r5     0.1629
   2626 O          -16.9193    15.5099    -3.8868 O       5      r5    -0.4880
   2627 C          -16.2271    16.8157    -3.7959 C       5      r5     0.1391
   2628 C          -15.8805    17.0932    -2.3577 C       5      r5     0.0004
   2629 C          -16.3519    15.6474    -1.7144 C       5      r5     0.0034
   2630 C          -15.9032    17.5680    -4.8337 C       0      r0     0.0127
   2631 C          -14.2964    17.3199    -0.5168 C       0      r0    -0.0039
   2632 C          -15.2504    13.1800    -1.4719 C       0      r0    -0.0287
   2633 C          -18.1189    13.9345    -2.4361 C       0      r0     0.0077
   2634 O          -13.7744    18.5805    -2.4828 O       0      r0    -0.5938
   2635 C          -14.5777   -16.9897    -4.7467 C       5      r5     0.1057
   2636 C          -14.3748   -17.4201    -6.0838 C       5      r5    -0.0068
   2637 C          -14.8186   -18.7488    -6.2153 C       5      r5    -0.0222
   2638 C          -15.4023    18.9181    -4.9976 C       5      r5     0.1293
   2639 O          -15.4456   -18.0158    -3.9392 O       5      r5    -0.5045
   2640 O          -17.6371    13.4395     0.0006 O       0      r0    -0.5794
   2641 C          -18.2667    13.2805    -1.2207 C       0      r0     0.1176
   2642 C           18.0688    12.3179    -1.4471 C       0      r0    -0.0386
   2643 C           17.6498    11.2857    -0.5277 C       0      r0    -0.0539
   2644 C           18.1017    11.0819     0.7716 C       0      r0    -0.0302
   2645 O          -12.1086    17.2640     0.0460 O       0      r0    -0.5067
   2646 C          -10.8757   -18.4732     1.2641 C       0      r0     0.1474
   2647 C          -12.0696   -17.8323     0.9573 C       0      r0    -0.0341
   2648 C          -13.1454   -18.5255     0.3197 C       0      r0    -0.0290
   2649 C          -13.0306    17.9938    -0.0018 C       0      r0     0.1877
   2650 C          -14.6085    12.5221    -0.3867 C       3      r3    -0.0235
   2651 C          -13.7492    12.6595     0.6813 C       3      r3    -0.0340
   2652 C          -14.9609    11.6459     2.1298 C       0      r0     0.0197
   2653 C          -15.4228    12.9121     2.8961 C       0      r0     0.1259
   2654 O          -15.7243    12.8587     4.4560 O       0      r0    -0.4418
   2655 C          -15.6482    13.9313     2.2802 C       0      r0    -0.0035
   2656 C          -14.1257   -15.7984    -4.2923 C       0      r0    -0.0560
   2657 H          -12.4187    16.2720    -2.6646 H       0      r0     0.0706
   2658 H          -13.0970    14.0890    -1.9634 H       0      r0     0.0695
   2659 H          -16.4517    17.8905    -1.9128 H       0      r0     0.0799
   2660 H          -16.8278    15.6400    -0.7077 H       0      r0     0.0939
   2661 H          -16.2532    16.9084    -5.6613 H       0      r0     0.0906
   2662 H          -15.1119    17.8762    -0.0965 H       0      r0     0.0344
   2663 H          -14.5316    16.3649    -0.0827 H       0      r0     0.0391
   2664 H          -16.1818    12.6844    -1.8494 H       0      r0     0.0806
   2665 H          -17.9590    12.7216     0.5587 H       0      r0     0.2689
   2666 H           18.5438    13.5985    -3.3063 H       0      r0     0.0916
   2667 H          -13.8426   -16.9059    -6.9001 H       0      r0     0.0895
   2668 H          -14.7045    18.5749    -7.0339 H       0      r0     0.0522
   2669 H           17.5846    12.2167    -2.4366 H       0      r0     0.0459
   2670 H           16.7474    10.5361    -0.6065 H       0      r0     0.0506
   2671 H          -12.1714   -16.7732     1.2918 H       0      r0     0.0587
   2672 H          -14.0328   -18.0254    -0.0093 H       0      r0     0.0437
   2673 H          -13.2074    13.2835     1.3976 H       0      r0     0.0583
   2674 H          -15.0491    10.2470     4.8841 H       0      r0     0.3762
   2675 H          -15.4447    13.9321     1.2529 H       0      r0     0.0649
   2676 H          -15.9590    14.8420     2.7722 H       0      r0     0.0980
   2677 H          -13.6447   -15.1171    -4.8955 H       0      r0     0.0447
   2678 H          -14.2782   -15.6145    -3.2871 H       0      r0     0.0477
   2679 C          -15.1382     7.5837     6.6223 C       6      r6     0.1016
   2680 C          -15.1824     6.3233     7.4324 C       6      r6    -0.0140
   2681 C          -16.1639     5.9852     8.2958 C       6      r6    -0.0333
   2682 C          -17.4409     6.6770     8.3578 C       6      r6    -0.0258
   2683 C           18.5553     7.0055     6.6563 C       5      r5     0.1467
   2684 O          -18.2797     6.2829     5.5567 O       5      r5    -0.4896
   2685 C          -17.2287     7.1481     5.0664 C       5      r5     0.1398
   2686 C          -16.5963     7.9451     6.1792 C       5      r5     0.0069
   2687 C          -17.7306     7.7574     7.3814 C       5      r5    -0.0155
   2688 C          -16.9309     7.3698     3.7054 C       0      r0     0.0087
   2689 C          -14.6361     8.6960     7.5729 C       0      r0    -0.0158
   2690 C          -18.4945     6.2706     9.2876 C       0      r0    -0.0295
   2691 C           17.1704     7.2239     6.9602 C       0      r0     0.0144
   2692 O          -14.1398     7.4204     5.2292 O       0      r0    -0.4663
   2693 C          -15.2033    10.3216     2.4192 C       5      r5     0.1328
   2694 C          -14.9450     9.1936     1.5961 C       5      r5     0.0025
   2695 C          -15.5770     8.0484     2.1508 C       5      r5    -0.0092
   2696 C          -16.1923     8.5724     3.2784 C       5      r5     0.1544
   2697 O          -16.0003     9.9034     3.7425 O       5      r5    -0.5136
   2698 O           17.3413     9.3386     8.4245 O       0      r0    -0.5850
   2699 C           16.7491     8.1474     8.0021 C       0      r0     0.1168
   2700 C           15.5561     7.5810     8.4772 C       0      r0    -0.0084
   2701 C           14.8461     8.1324     9.6414 C       0      r0    -0.0298
   2702 C           15.0792     9.2838    10.3477 C       0      r0    -0.0061
   2703 O          -14.3414    10.2301     5.7779 O       0      r0    -0.5458
   2704 C          -15.7953    12.6006     5.8089 C       0      r0     0.1871
   2705 C          -15.8666    12.2533     7.1248 C       0      r0    -0.0252
   2706 C          -15.6536    10.8663     7.6591 C       0      r0    -0.0323
   2707 C          -14.9124    10.0219     6.9453 C       0      r0     0.1465
   2708 C          -18.3233     5.1669    10.0989 C       5      r5     0.1159
   2709 C           17.7304     5.1155    10.7940 C       5      r5    -0.0337
   2710 C           18.0089     3.9600    11.6003 C       5      r5    -0.0329
   2711 C          -17.9590     3.4158    11.2898 C       5      r5     0.1226
   2712 O          -17.2258     4.2343    10.3036 O       5      r5    -0.4719
   2713 C          -17.7664     2.4196    11.9825 C       0      r0    -0.0030
   2714 C          -14.5833    11.5294     0.7481 C       3      r3    -0.0303
   2715 H          -14.2633     5.7550     7.6253 H       0      r0     0.0982
   2716 H          -16.1021     5.2608     9.0870 H       0      r0     0.1267
   2717 H          -16.5465     8.9322     5.7298 H       0      r0     0.0895
   2718 H          -17.9348     8.7246     7.8397 H       0      r0     0.0803
   2719 H          -17.3364     6.5990     3.0115 H       0      r0     0.1207
   2720 H          -15.0465     8.5963     8.5751 H       0      r0     0.0326
   2721 H          -13.5691     8.6735     7.8979 H       0      r0     0.0679
   2722 H           17.8426     6.7649     9.3587 H       0      r0     0.0542
   2723 H           17.2820     9.2695     9.3898 H       0      r0     0.2580
   2724 H           16.4453     6.6040     6.4387 H       0      r0     0.1064
   2725 H          -14.3729     9.1039     0.6833 H       0      r0     0.0643
   2726 H          -15.5254     7.0476     1.7963 H       0      r0     0.0452
   2727 H           15.2150     6.6248     8.0078 H       0      r0     0.1664
   2728 H           13.9364     7.6868    10.0364 H       0      r0     0.0639
   2729 H          -16.1469    12.9756     7.8467 H       0      r0     0.0448
   2730 H          -16.1163    10.5700     8.5853 H       0      r0     0.0595
   2731 H           16.8756     5.7421    10.7736 H       0      r0     0.0461
   2732 H           17.3371     3.5019    12.3532 H       0      r0     0.0422
   2733 H          -18.4010     2.0511    12.7391 H       0      r0     0.0813
   2734 H          -16.7925     1.8595    12.0681 H       0      r0     0.0920
   2735 H          -14.5933   -18.8255    -2.8727 H       0      r0     0.3493
   2736 H          -12.4526    17.1311     5.7416 H       0      r0     0.3534
   2737 C           10.4561    -2.0392    -1.7528 C       0      r0     0.1655
   2738 C           11.0355    -1.8190    -3.0877 C       0      r0    -0.0135
   2739 C           10.6245    -2.3714    -4.2389 C       0      r0    -0.0264
   2740 C            9.4745    -3.2408    -4.3568 C       0      r0     0.1722
   2741 C            9.2426    -3.7619    -5.8190 C       0      r0    -0.0082
   2742 O            8.5850    -3.4884    -3.6378 O       0      r0    -0.5255
   2743 O           10.5892    -1.2708    -0.8787 O       0      r0    -0.4984
   2744 C            9.1607    -5.2158    -5.9414 C       0      r0     0.1052
   2745 C            9.3568    -6.0285    -4.9451 C       0      r0     0.0018
   2746 C            9.1714    -7.3309    -5.4271 C       0      r0    -0.0229
   2747 C            8.9246    -7.4069    -6.8518 C       0      r0     0.0685
   2748 O            8.7824    -5.7638    -7.3163 O       0      r0    -0.4803
   2749 C            8.8209    -8.3809    -7.5577 C       0      r0    -0.0459
   2750 C            9.8139    -3.3772    -1.2737 C       0      r0     0.0415
   2751 C           13.1249    -5.9824     0.1776 C       0      r0     0.1406
   2752 C           13.0963    -4.6184     0.1397 C       0      r0    -0.0264
   2753 C           11.9593    -3.8108    -0.3939 C       0      r0    -0.0241
   2754 C           10.8284    -4.3311    -0.7720 C       0      r0     0.1512
   2755 O           10.3124    -5.5971    -0.8207 O       0      r0    -0.4827
   2756 H           11.8078    -1.1230    -3.1020 H       0      r0     0.0703
   2757 H           11.2468    -2.1666    -5.0820 H       0      r0     0.0623
   2758 H            8.4345    -3.1394    -6.3003 H       0      r0     0.0787
   2759 H           10.0317    -3.3571    -6.4607 H       0      r0     0.0374
   2760 H            9.6155    -5.7704    -3.9215 H       0      r0     0.1090
   2761 H            9.3364    -8.2149    -4.8827 H       0      r0     0.0467
   2762 H            8.9347    -9.3806    -7.1894 H       0      r0     0.0521
   2763 H            8.6233    -8.3557    -8.6219 H       0      r0     0.0716
   2764 H            9.1257    -3.0423    -0.4896 H       0      r0     0.0938
   2765 H            9.0292    -3.7912    -1.9057 H       0      r0     0.1654
   2766 H           13.9412    -4.0675     0.4597 H       0      r0     0.0681
   2767 H           12.1553    -2.7614    -0.5056 H       0      r0     0.0741
   2768 C           11.2446     8.4037    -7.1247 C       0      r0     0.1747
   2769 C           10.5667     7.0890    -7.2877 C       0      r0    -0.0193
   2770 C           10.7535     6.0269    -6.5110 C       0      r0    -0.0077
   2771 C           11.5917     5.7621    -5.3394 C       0      r0     0.2206
   2772 C           11.5025     4.4248    -4.5094 C       0      r0     0.0392
   2773 O           12.3882     6.4998    -4.8811 O       0      r0    -0.4736
   2774 O           11.2963     9.2863    -7.9133 O       0      r0    -0.4826
   2775 C           10.1627     4.4505    -3.6877 C       5      r5     0.1541
   2776 C            9.6659     3.1761    -3.5503 C       5      r5    -0.0173
   2777 C            8.5014     3.3339    -2.7980 C       5      r5    -0.0246
   2778 C            8.3519     4.7179    -2.4507 C       5      r5     0.0935
   2779 O            9.5784     5.5305    -3.1779 O       5      r5    -0.4449
   2780 C            7.3973     5.2312    -1.7107 C       0      r0    -0.0366
   2781 C           11.6346     8.7218    -5.6741 C       0      r0     0.0323
   2782 C           10.8411    12.7939    -4.1561 C       0      r0     0.1841
   2783 C           10.1919    12.2844    -5.3263 C       0      r0    -0.0061
   2784 C           10.4747    10.9747    -5.8229 C       0      r0    -0.0026
   2785 C           11.4121    10.1608    -5.1579 C       0      r0     0.1758
   2786 O           11.9605    10.5080    -4.1518 O       0      r0    -0.4940
   2787 H            9.9029     7.0147    -8.1272 H       0      r0     0.0562
   2788 H           10.2539     5.0895    -6.7620 H       0      r0     0.0683
   2789 H           11.6857     3.5099    -5.1229 H       0      r0     0.0928
   2790 H           12.4079     4.2794    -3.8870 H       0      r0     0.1514
   2791 H           10.0308     2.2406    -3.9023 H       0      r0     0.0589
   2792 H            7.8927     2.5333    -2.4350 H       0      r0     0.0506
   2793 H            6.6760     4.5039    -1.3314 H       0      r0     0.0542
   2794 H            7.4294     6.2639    -1.4004 H       0      r0     0.0639
   2795 H           11.2290     8.0660    -4.8545 H       0      r0     0.1184
   2796 H           12.6917     8.4267    -5.5023 H       0      r0     0.1317
   2797 H            9.4082    12.8468    -5.9029 H       0      r0     0.0747
   2798 H            9.9883    10.6026    -6.7313 H       0      r0     0.1016
   2799 C            8.0152    12.3590     2.9491 C       5      r5     0.1374
   2800 O            7.1344    12.4400     4.0464 O       5      r5    -0.4816
   2801 C            7.6989    13.7992     4.5478 C       5      r5     0.1020
   2802 C            8.7484    14.3613     3.8451 C       5      r5    -0.0340
   2803 C            8.9698    13.4102     2.8272 C       5      r5     0.0008
   2804 C            7.9809    11.2618     2.0875 C       0      r0    -0.0066
   2805 C            7.6398    15.5239     6.3044 C       0      r0     0.1568
   2806 O            6.8309    16.3730     6.9235 O       0      r0    -0.4571
   2807 C            9.2990    17.6467     7.7076 C       0      r0     0.0344
   2808 C            9.7816    16.5741     6.9222 C       0      r0    -0.0205
   2809 C            9.0159    15.5955     6.2885 C       0      r0    -0.0084
   2810 C            7.0725    14.3715     5.6272 C       0      r0     0.0278
   2811 C            8.8678    11.1525     0.9623 C       5      r5     0.1272
   2812 C            8.7375     9.9547     0.2925 C       5      r5    -0.0355
   2813 C            9.6213     9.8693    -0.8342 C       5      r5    -0.0422
   2814 C           10.2188    11.1518    -0.7178 C       5      r5     0.0935
   2815 O            9.7891    12.0637     0.5432 O       5      r5    -0.4639
   2816 C           11.0225    11.3091    -1.7323 C       0      r0    -0.0110
   2817 H            9.3263    15.2644     3.9523 H       0      r0     0.0430
   2818 H            9.7451    13.4993     2.0796 H       0      r0     0.1137
   2819 H            7.2685    10.5083     2.3037 H       0      r0     0.0523
   2820 H           10.8741    16.4793     6.9855 H       0      r0     0.0649
   2821 H            9.5555    14.7363     5.8761 H       0      r0     0.0719
   2822 H            6.1592    13.9317     6.0226 H       0      r0     0.1241
   2823 H            8.0267     9.2140     0.5086 H       0      r0     0.0345
   2824 H            9.7407     9.0674    -1.5304 H       0      r0     0.0546
   2825 H           10.9987    10.5721    -2.5227 H       0      r0     0.1137
   2826 H           11.6212    12.1832    -1.9046 H       0      r0     0.1037
   2827 C           -2.7726    10.1141     8.6424 C       5      r5     0.1523
   2828 O           -2.7864    11.5541     8.5045 O       5      r5    -0.4928
   2829 C           -1.7585    11.8548     9.5166 C       5      r5     0.1246
   2830 C           -1.1683    10.7606    10.1626 C       5      r5    -0.0303
   2831 C           -1.8600     9.6697     9.6557 C       5      r5     0.0118
   2832 C           -3.3626     9.1569     7.8360 C       0      r0     0.0146
   2833 C           -0.6560    13.6706    10.9215 C       0      r0     0.1363
   2834 O            0.3480    14.6890    10.8455 O       0      r0    -0.4754
   2835 C            0.0909    13.9344    13.9538 C       0      r0    -0.0124
   2836 C           -0.7362    12.9793    13.3516 C       0      r0    -0.0372
   2837 C           -1.1285    12.9279    11.9331 C       0      r0    -0.0260
   2838 C           -1.3574    13.1953     9.7605 C       0      r0     0.0258
   2839 C           -3.3212     7.7533     8.0027 C       5      r5     0.1287
   2840 C           -3.9615     6.9250     7.0889 C       5      r5    -0.0021
   2841 C           -3.7268     5.6391     7.6024 C       5      r5    -0.0026
   2842 C           -3.0150     5.5804     8.8476 C       5      r5     0.0829
   2843 O           -2.6956     7.1325     9.1510 O       5      r5    -0.4784
   2844 C           -2.5728     4.6854     9.5696 C       0      r0    -0.0457
   2845 H           -0.3987    10.7636    10.8937 H       0      r0     0.0348
   2846 H           -1.5842     8.6758     9.9688 H       0      r0     0.1043
   2847 H           -4.0587     9.4484     7.0745 H       0      r0     0.0575
   2848 H           -1.3312    12.2876    14.0034 H       0      r0     0.1316
   2849 H           -1.8667    12.2089    11.7460 H       0      r0     0.0549
   2850 H           -1.5558    13.9269     9.0489 H       0      r0     0.1031
   2851 H           -4.5311     7.2980     6.2535 H       0      r0     0.1165
   2852 H           -4.0906     4.7673     7.1073 H       0      r0     0.0745
   2853 H           -2.6667     3.6080     9.3949 H       0      r0     0.0697
   2854 H           -2.1156     5.1278    10.4991 H       0      r0     0.0581
   2855 C            7.2072   -17.3736    14.1979 C       5      r5     0.1036
   2856 O            6.3389   -18.6518    13.9761 O       5      r5    -0.4774
   2857 C            7.1998    18.6550    13.1198 C       5      r5     0.1206
   2858 C            8.4078   -18.7048    12.7229 C       5      r5    -0.0402
   2859 C            8.3387   -17.4367    13.3456 C       5      r5    -0.0098
   2860 C            6.9841   -16.3119    15.0201 C       0      r0    -0.0317
   2861 C            6.9305    17.3521    12.4731 C       0      r0    -0.0194
   2862 H            9.1901    18.9133    11.9879 H       0      r0     0.0426
   2863 H            9.1286   -16.7027    13.2579 H       0      r0     0.1426
   2864 H            7.2523   -15.3468    15.4078 H       0      r0     0.0450
   2865 H            7.6579    16.9025    11.7887 H       0      r0     0.0801
   2866 C            3.1741    17.9356    -4.4897 C       5      r5     0.1023
   2867 O            4.3648    17.4550    -5.3793 O       5      r5    -0.4652
   2868 C            3.7105    16.2202    -5.7839 C       5      r5     0.1216
   2869 C            2.4917    15.8449    -5.2154 C       5      r5    -0.0333
   2870 C            2.1435    16.9040    -4.4303 C       5      r5    -0.0192
   2871 C            2.9788   -18.8752    -3.9122 C       0      r0    -0.0073
   2872 C            4.2733    15.2082    -6.6784 C       0      r0    -0.0226
   2873 H            1.9918    14.9022    -5.4844 H       0      r0     0.0474
   2874 H            1.2294    16.9646    -3.8183 H       0      r0     0.1118
   2875 H            2.9301   -17.8755    -3.4904 H       0      r0     0.0755
   2876 H            3.8228    14.3064    -6.9539 H       0      r0     0.0524
   2877 C            7.3357   -17.1123    -1.8898 C       5      r5     0.0907
   2878 O            5.8475   -17.8462    -1.8100 O       5      r5    -0.4769
   2879 C            5.2672   -17.0652    -0.8062 C       5      r5     0.1499
   2880 C            5.9574   -16.0112    -0.2775 C       5      r5    -0.0226
   2881 C            7.2095   -16.0615    -0.8368 C       5      r5    -0.0226
   2882 C            8.2680   -17.3937    -2.5968 C       0      r0     0.1086
   2883 C            3.9981   -17.2737    -0.0687 C       0      r0    -0.0051
   2884 H            5.6312   -15.3329     0.5038 H       0      r0     0.0554
   2885 H            8.0542   -15.4422    -0.5533 H       0      r0     0.0825
   2886 H            7.9957   -18.2561    -3.1860 H       0      r0     0.0879
   2887 H            3.9029   -16.7112     0.8088 H       0      r0     0.0443
   2888 C            4.2600     2.6557   -14.1094 C       5      r5     0.1267
   2889 O            3.2229     2.1564   -13.2732 O       5      r5    -0.4684
   2890 C            4.0207     2.1049   -11.9616 C       5      r5     0.1053
   2891 C            5.3318     2.7696   -12.1957 C       5      r5    -0.0261
   2892 C            5.4656     2.9872   -13.5240 C       5      r5    -0.0259
   2893 C            4.1955     2.7450   -15.5941 C       0      r0    -0.0130
   2894 C            3.6238     1.7111   -10.8180 C       0      r0    -0.0297
   2895 H            6.1090     2.9747   -11.4403 H       0      r0     0.0477
   2896 H            6.3820     3.3906   -13.9452 H       0      r0     0.0350
   2897 H            5.0710     3.0809   -16.1072 H       0      r0     0.0571
   2898 H            3.2305     1.3488    -9.9180 H       0      r0     0.0472
   2899 C           -2.8329    12.9088     1.8424 C       7      r7    -0.0409
   2900 C           -3.3425    11.7151     2.2429 C       7      r7    -0.0630
   2901 C           -2.6193    10.4610     2.1781 C       7      r7     0.0717
   2902 C           -1.5413    10.4406     1.0563 C       7      r7     0.1547
   2903 C            0.3252    12.2598     0.8576 C       5      r5     0.1470
   2904 O            0.4341    13.5651     1.5291 O       5      r5    -0.4931
   2905 C           -0.7456    14.1710     1.1762 C       5      r5     0.1504
   2906 C           -1.7984    13.1821     0.8182 C       7      r7    -0.0035
   2907 C           -1.0002    11.8915     0.3852 C       7      r7     0.0051
   2908 C           -0.9054    15.5400     1.0320 C       0      r0     0.0143
   2909 C           -3.6165    14.0740     2.4303 C       0      r0    -0.0187
   2910 C           -1.9524     9.4702    -0.1332 C       0      r0    -0.0153
   2911 C            1.4430    11.4688     0.7129 C       0      r0     0.0238
   2912 O           -1.0636    10.0692     2.1861 O       7      r7    -0.4469
   2913 C           -4.0333    17.2042     0.1437 C       5      r5     0.2197
   2914 C           -2.9434    18.2799     0.1969 C       5      r5    -0.0256
   2915 C           -1.7564    17.7020     0.3826 C       5      r5    -0.0381
   2916 C           -2.0224    16.2880     0.5395 C       5      r5     0.1308
   2917 O           -3.2640    15.7640     0.2048 O       5      r5    -0.4526
   2918 O            0.6885     9.8697    -1.0775 O       5      r5    -0.4740
   2919 C            1.5893    10.3176    -0.1541 C       5      r5     0.1463
   2920 C            2.7931     9.6347    -0.0140 C       5      r5    -0.0224
   2921 C            2.8749     8.5079    -0.8932 C       5      r5    -0.0273
   2922 C            1.5752     8.5831    -1.4380 C       5      r5     0.1055
   2923 O           -4.5857    14.4192     4.7558 O       5      r5    -0.4718
   2924 C           -4.0607    13.5726     6.0871 C       5      r5     0.0841
   2925 C           -2.7910    12.9098     5.7987 C       5      r5    -0.0234
   2926 C           -2.5842    13.0762     4.4376 C       5      r5    -0.0364
   2927 C           -3.6097    13.9256     4.0143 C       5      r5     0.1290
   2928 C           -2.7437     8.2988     0.4156 C       5      r5     0.1446
   2929 C           -3.8349     7.9655    -0.4055 C       5      r5    -0.0271
   2930 C           -4.5154     7.0235     0.2496 C       5      r5    -0.0300
   2931 C           -3.8490     6.6236     1.5465 C       5      r5     0.0821
   2932 O           -2.5307     7.6287     1.5548 O       5      r5    -0.4519
   2933 C           -4.6389    13.5486     7.1602 C       0      r0    -0.0194
   2934 C            1.3979     7.5847    -2.2392 C       0      r0    -0.0251
   2935 H           -4.1395    11.6574     2.9623 H       0      r0     0.0381
   2936 H           -3.1854     9.5774     2.4147 H       0      r0     0.1079
   2937 H           -2.3827    13.7139     0.0383 H       0      r0     0.1072
   2938 H           -1.0264    11.6039    -0.6239 H       0      r0     0.0643
   2939 H           -0.0175    16.0715     1.3561 H       0      r0     0.0993
   2940 H           -3.2637    15.0419     2.0083 H       0      r0     0.1081
   2941 H           -4.6989    14.1308     2.1938 H       0      r0     0.1338
   2942 H           -2.3141     9.9982    -1.0486 H       0      r0     0.0367
   2943 H           -1.0568     9.0632    -0.5646 H       0      r0     0.1269
   2944 H            2.3415    11.8376     1.2217 H       0      r0     0.0828
   2945 H           -3.1509   -18.6582     0.1771 H       0      r0     0.0345
   2946 H           -0.8215    18.2479     0.4676 H       0      r0     0.0316
   2947 H            3.5899     9.9178     0.6724 H       0      r0     0.0526
   2948 H            3.6521     7.8399    -1.2018 H       0      r0     0.0888
   2949 H           -2.2599    12.2592     6.5261 H       0      r0     0.1024
   2950 H           -1.8206    12.6362     3.8341 H       0      r0     0.0684
   2951 H           -4.0962     8.4433    -1.3343 H       0      r0     0.0385
   2952 H           -5.5036     6.6343    -0.0277 H       0      r0     0.0501
   2953 H           -4.2209    13.0549     8.0178 H       0      r0     0.0902
   2954 H           -5.5800    14.0400     7.4119 H       0      r0     0.1246
   2955 H            2.1812     6.8508    -2.3188 H       0      r0     0.1000
   2956 H            0.4718     7.4987    -2.8215 H       0      r0     0.1174
   2957 C           -9.7086     5.3104     2.7212 C       5      r5     0.1438
   2958 C           -9.8938     5.0705     1.2776 C       5      r5    -0.0142
   2959 C          -10.2417     3.8577     0.9979 C       5      r5    -0.0249
   2960 C          -10.3036     3.3307     2.4022 C       5      r5     0.0950
   2961 C           -8.7189     2.4738     4.1335 C       5      r5     0.1550
   2962 O           -8.4964     3.3932     5.1980 O       5      r5    -0.4629
   2963 C           -8.0063     4.5338     4.5643 C       5      r5     0.1402
   2964 C           -8.3025     4.5768     3.0776 C       5      r5    -0.0058
   2965 C           -8.7719     3.1145     2.7645 C       5      r5     0.0062
   2966 C           -7.2236     5.5098     5.1319 C       0      r0     0.0015
   2967 C           -9.6572     6.8475     2.9868 C       0      r0    -0.0064
   2968 C          -11.2043     2.0649     2.4700 C       0      r0    -0.0072
   2969 C           -8.8967     1.1814     4.3439 C       0      r0     0.0153
   2970 O          -10.6459     4.6482     3.4107 O       5      r5    -0.4408
   2971 C           -4.9322     7.8500     3.5632 C       5      r5     0.1095
   2972 C           -4.8003     6.7891     2.6601 C       5      r5     0.0099
   2973 C           -5.6448     5.7797     3.1761 C       5      r5    -0.0306
   2974 C           -6.2491     6.2486     4.3632 C       5      r5     0.1233
   2975 O           -5.8975     7.5068     4.8280 O       5      r5    -0.4809
   2976 O           -8.8439     0.4491     1.9283 O       5      r5    -0.4976
   2977 C           -8.9938     0.1986     3.2434 C       5      r5     0.1328
   2978 C           -9.1657    -1.1237     3.6616 C       5      r5    -0.0068
   2979 C           -8.8809    -2.0583     2.6610 C       5      r5    -0.0338
   2980 C           -8.6679    -1.1377     1.5688 C       5      r5     0.0906
   2981 O           -8.6302     7.5346     0.7126 O       5      r5    -0.4818
   2982 C           -7.3251     8.4858     0.6294 C       5      r5     0.0840
   2983 C           -6.8610     9.0487     1.8541 C       5      r5    -0.0445
   2984 C           -7.7059     8.3062     2.7400 C       5      r5    -0.0090
   2985 C           -8.6605     7.5631     2.0608 C       5      r5     0.1267
   2986 C          -12.6425     2.2222     1.8526 C       5      r5     0.1345
   2987 C          -13.6424     1.9889     2.7051 C       5      r5    -0.0168
   2988 C          -14.8054     2.4018     2.0156 C       5      r5    -0.0403
   2989 C          -14.4362     2.9717     0.7716 C       5      r5     0.0919
   2990 O          -12.8451     2.6588     0.5672 O       5      r5    -0.4827
   2991 C           -6.6033     8.9171    -0.3324 C       0      r0    -0.0607
   2992 C           -8.4024    -1.8541     0.5427 C       0      r0    -0.0562
   2993 H           -9.6932     5.8814     0.5096 H       0      r0     0.0974
   2994 H          -10.4443     3.3097     0.1056 H       0      r0     0.0752
   2995 H           -7.4555     4.9246     2.5122 H       0      r0     0.0244
   2996 H           -8.1719     2.5389     1.9760 H       0      r0     0.0653
   2997 H           -7.3709     5.6494     6.2077 H       0      r0     0.0737
   2998 H          -10.5625     7.4034     2.8904 H       0      r0     0.1198
   2999 H           -9.4927     6.9322     4.0308 H       0      r0     0.0552
   3000 H          -10.5861     1.3219     1.9879 H       0      r0     0.1029
   3001 H          -11.2470     1.6589     3.4786 H       0      r0     0.0695
   3002 H           -8.8732     0.8860     5.3791 H       0      r0     0.0785
   3003 H           -3.4365     5.5670     1.6096 H       0      r0     0.1055
   3004 H           -5.7975     4.8029     2.7524 H       0      r0     0.0230
   3005 H           -9.3543    -1.4230     4.6845 H       0      r0     0.1144
   3006 H           -8.9033    -3.1595     2.6791 H       0      r0     0.0470
   3007 H           -5.9621     9.6375     2.0771 H       0      r0     0.0306
   3008 H           -7.7204     8.3879     3.7676 H       0      r0     0.0965
   3009 H          -13.5834     1.6716     3.7043 H       0      r0     0.1037
   3010 H          -15.7985     2.4157     2.4025 H       0      r0     0.0373
   3011 H           -5.7421     9.6046    -0.1711 H       0      r0     0.0245
   3012 H           -6.8967     8.7024    -1.3579 H       0      r0     0.0538
   3013 H           -8.3605    -2.9740     0.5026 H       0      r0     0.0334
   3014 H           -8.1436    -1.3708    -0.3517 H       0      r0     0.0550
   3015 C            2.7387    14.7287     4.8366 C       6      r6     0.1324
   3016 C            1.9980    13.3745     4.7793 C       6      r6    -0.0003
   3017 C            2.3760    12.4290     3.8665 C       6      r6    -0.0134
   3018 C            3.5999    12.7162     3.0654 C       6      r6    -0.0059
   3019 C            4.8080    14.7298     2.0868 C       5      r5     0.1696
   3020 O            4.9200    15.9766     2.7595 O       5      r5    -0.4911
   3021 C            3.5370    16.2975     3.0098 C       5      r5     0.1551
   3022 C            2.7585    15.0536     3.2944 C       5      r5     0.0220
   3023 C            3.6045    14.0182     2.4052 C       5      r5     0.0169
   3024 C            2.8751    17.4594     2.9398 C       0      r0     0.0203
   3025 C            1.8683    15.7326     5.6013 C       0      r0     0.0298
   3026 C            4.5336    11.7693     2.9108 C       0      r0    -0.0076
   3027 C            5.6961    14.2927     1.1065 C       0      r0     0.0331
   3028 O            4.0548    14.7474     5.3781 O       0      r0    -0.5734
   3029 C           -0.6754    17.8102     3.3408 C       5      r5     0.0792
   3030 C           -0.0627   -18.8326     3.0098 C       5      r5    -0.0261
   3031 C            1.3216    18.9616     2.9156 C       5      r5    -0.0209
   3032 C            1.4420    17.5901     3.1485 C       5      r5     0.1410
   3033 O            0.5093    16.6638     3.4136 O       5      r5    -0.5174
   3034 O            4.4971    12.4126     0.0577 O       0      r0    -0.5903
   3035 C            5.5578    13.1919     0.1397 C       0      r0     0.1409
   3036 C            6.7773    13.3029    -0.5221 C       0      r0    -0.0164
   3037 C            7.1273    12.3285    -1.5187 C       0      r0    -0.0335
   3038 C            6.3442    11.4485    -2.1819 C       0      r0    -0.0464
   3039 O            0.4885    14.9149     7.3425 O       0      r0    -0.4724
   3040 C            1.3663    15.0807     9.9251 C       0      r0     0.1719
   3041 C            2.5304    15.4641     9.3288 C       0      r0    -0.0168
   3042 C            2.6607    15.6262     7.8487 C       0      r0     0.0236
   3043 C            1.6677    15.3574     7.0201 C       0      r0     0.1901
   3044 C            4.6936    10.6937     3.8407 C       3      r3    -0.0116
   3045 C            4.2647    10.1924     5.0555 C       3      r3    -0.0195
   3046 C            5.8053     8.7134     5.3946 C       0      r0     0.0133
   3047 C            6.7534     9.3524     6.4909 C       0      r0     0.1392
   3048 O            7.3478     8.5114     7.4722 O       0      r0    -0.5632
   3049 C            6.9407    10.5511     6.5419 C       0      r0     0.0056
   3050 C           -1.8325    17.5613     3.5992 C       0      r0    -0.0339
   3051 H            1.2096    13.1949     5.4563 H       0      r0     0.0867
   3052 H            1.9369    11.4510     3.8513 H       0      r0     0.1123
   3053 H            1.7431    15.2154     2.9052 H       0      r0     0.1227
   3054 H            3.0870    13.8410     1.3961 H       0      r0     0.0955
   3055 H            3.5142    18.2822     2.6354 H       0      r0     0.0680
   3056 H            2.2138    16.7468     5.6297 H       0      r0     0.1335
   3057 H            0.8781    15.9066     5.0403 H       0      r0     0.1269
   3058 H            4.6383    11.9669    -0.8471 H       0      r0     0.2500
   3059 H            5.4203    11.8888     2.2331 H       0      r0     0.0985
   3060 H            6.6825    14.7566     1.0191 H       0      r0     0.1053
   3061 H           -0.6157   -17.8971     3.0368 H       0      r0     0.0733
   3062 H            1.9718   -18.1063     2.6959 H       0      r0     0.0830
   3063 H            7.4954    14.0946    -0.2910 H       0      r0     0.1065
   3064 H            8.1021    12.4121    -1.9927 H       0      r0     0.0770
   3065 H            3.3055    15.7742     9.9650 H       0      r0     0.0484
   3066 H            3.5436    16.0785     7.4357 H       0      r0     0.0988
   3067 H            3.6510    10.6295     5.8198 H       0      r0     0.0876
   3068 H            1.7611     4.0470     3.7117 H       0      r0     0.1353
   3069 H            6.5572    11.2631     5.7364 H       0      r0     0.0937
   3070 H            7.5771    11.1122     7.2816 H       0      r0     0.1319
   3071 H           -2.6952    18.2478     3.5575 H       0      r0     0.0791
   3072 H           -2.1192    16.5145     3.8137 H       0      r0     0.0566
   3073 C            1.2357     6.4715     2.9684 C       6      r6     0.0705
   3074 C            0.3939     6.9679     1.8299 C       6      r6     0.0051
   3075 C            0.2911     6.2984     0.6252 C       6      r6    -0.0111
   3076 C            1.0856     5.2234     0.2901 C       6      r6     0.0046
   3077 C            2.7131     3.8663     0.7661 C       5      r5     0.1595
   3078 O            2.4928     3.1405     1.8428 O       5      r5    -0.4788
   3079 C            2.5896     4.3603     3.1167 C       5      r5     0.0760
   3080 C            2.3761     5.6298     2.4418 C       5      r5    -0.0087
   3081 C            2.4103     5.3147     0.9059 C       5      r5    -0.0026
   3082 C            3.8752     4.3311     3.9260 C       0      r0    -0.0172
   3083 C            1.8759     7.6727     3.7575 C       0      r0    -0.0004
   3084 C            0.7188     4.3129    -0.9631 C       0      r0    -0.0261
   3085 C            3.4737     3.3809    -0.3834 C       0      r0     0.0081
   3086 O            0.3203     5.4312     3.9806 O       0      r0    -0.5075
   3087 C            5.5709     7.3825     5.0539 C       5      r5     0.1065
   3088 C            6.2437     6.4057     5.7872 C       5      r5    -0.0151
   3089 C            5.6389     5.2468     5.3434 C       5      r5    -0.0314
   3090 C            4.6695     5.3758     4.2823 C       5      r5     0.1122
   3091 O            4.5376     6.7511     3.9664 O       5      r5    -0.4903
   3092 O            3.3954     5.6678    -1.4369 O       5      r5    -0.5085
   3093 C            3.7488     4.3105    -1.3966 C       5      r5     0.1195
   3094 C            4.5338     3.5820    -2.2688 C       5      r5    -0.0316
   3095 C            4.7351     4.6312    -3.2666 C       5      r5    -0.0270
   3096 C            4.2772     5.8711    -2.7876 C       5      r5     0.1220
   3097 O            1.2890     9.6545     5.0746 O       5      r5    -0.4652
   3098 C           -0.2009    10.0331     5.7781 C       5      r5     0.1256
   3099 C           -1.1496     8.9702     5.6320 C       5      r5    -0.0069
   3100 C           -0.4169     8.0798     4.8135 C       5      r5     0.0316
   3101 C            0.8826     8.4964     4.5857 C       5      r5     0.1732
   3102 C           -0.7560     3.8752    -0.9043 C       5      r5     0.1431
   3103 C           -1.2640     3.3574    -2.0370 C       5      r5     0.0124
   3104 C           -2.6087     3.1159    -1.7694 C       5      r5     0.0262
   3105 C           -2.8751     3.6314    -0.4262 C       5      r5     0.1234
   3106 O           -1.5436     3.9824     0.2704 O       5      r5    -0.4658
   3107 C           -4.0435     3.6511     0.0484 C       0      r0    -0.0267
   3108 C            5.1037     9.3380     4.2823 C       3      r3     0.0039
   3109 H           -0.1200     7.9037     1.9785 H       0      r0     0.1349
   3110 H           -0.5378     6.5930    -0.0030 H       0      r0     0.0969
   3111 H            3.3226     6.2003     2.4141 H       0      r0     0.0816
   3112 H            3.1297     6.0398     0.4780 H       0      r0     0.0902
   3113 H            4.2502     3.3557     4.2528 H       0      r0     0.0598
   3114 H            2.6273     7.2855     4.4148 H       0      r0     0.1113
   3115 H            2.3881     8.3283     3.1023 H       0      r0     0.0678
   3116 H            0.8753     4.9262    -1.8360 H       0      r0     0.0444
   3117 H            1.3474     3.4848    -1.1407 H       0      r0     0.0532
   3118 H            3.7462     2.3590    -0.5383 H       0      r0     0.1148
   3119 H            7.0209     6.5007     6.5557 H       0      r0     0.0998
   3120 H            5.8669     4.2678     5.7881 H       0      r0     0.0422
   3121 H            4.8617     2.5412    -2.3245 H       0      r0     0.0983
   3122 H            5.2134     4.4792    -4.1958 H       0      r0     0.0466
   3123 H           -2.1309     8.9032     6.0169 H       0      r0     0.0518
   3124 H           -0.8641     7.0967     4.5421 H       0      r0     0.1328
   3125 H           -0.7849     3.2060    -2.9930 H       0      r0     0.0756
   3126 H           -3.2928     2.6842    -2.4539 H       0      r0     0.1263
   3127 H           -4.9097     3.4295    -0.5010 H       0      r0     0.0811
   3128 H           -4.2009     4.0112     1.0657 H       0      r0     0.0387
   3129 H            4.6322    15.3720     4.8981 H       0      r0     0.3263
   3130 H            7.4898     9.0363     8.3248 H       0      r0     0.3111
   3131 C           -6.4367    15.7734    17.9422 C       0      r0     0.1749
   3132 C           -6.5895    16.2509    16.6022 C       0      r0    -0.0149
   3133 C           -7.7420    16.7706    15.9949 C       0      r0    -0.0203
   3134 C           -8.8710    17.1821    16.6582 C       0      r0     0.1545
   3135 C           -9.9594    17.6799    15.8301 C       0      r0     0.0067
   3136 O           -9.0950    17.2139    17.9598 O       0      r0    -0.5152
   3137 O           -5.3756    15.5501    18.4120 O       0      r0    -0.5179
   3138 C           -9.4015    18.4050    14.5572 C       5      r5     0.1295
   3139 C          -10.0027    18.2219    13.3707 C       5      r5    -0.0169
   3140 C           -9.3371   -18.9430    12.4565 C       5      r5    -0.0246
   3141 C           -8.3288   -18.1900    13.1834 C       5      r5     0.0954
   3142 O           -8.3033   -18.6987    14.6945 O       5      r5    -0.4902
   3143 C           -7.5728   -17.2840    12.6302 C       0      r0    -0.0415
   3144 C           -7.6525    15.2694   -18.5834 C       0      r0     0.0160
   3145 C           -7.5675    12.4346   -16.1580 C       5      r5     0.1045
   3146 C           -6.2958    12.3874   -16.7551 C       5      r5    -0.0322
   3147 C           -6.2154    13.4720   -17.6712 C       5      r5    -0.0062
   3148 C           -7.3815    14.0805   -17.6436 C       5      r5     0.1426
   3149 O           -8.4203    13.6764   -16.7610 O       5      r5    -0.4677
   3150 H           -5.8251    16.2104    15.8817 H       0      r0     0.0569
   3151 H           -7.8183    16.8799    14.9035 H       0      r0     0.0650
   3152 H          -10.5452    16.8120    15.4773 H       0      r0     0.0939
   3153 H          -10.6420    18.3123    16.3743 H       0      r0     0.0875
   3154 H          -10.8873    17.6660    13.1932 H       0      r0     0.0532
   3155 H           -9.5653   -18.8307    11.4457 H       0      r0     0.0607
   3156 H           -7.4852   -17.0306    11.5688 H       0      r0     0.0492
   3157 H           -6.8911   -16.7710    13.2612 H       0      r0     0.0653
   3158 H           -7.8760    16.1843   -17.9775 H       0      r0     0.0977
   3159 H           -8.5349    15.0498    18.2345 H       0      r0     0.0765
   3160 H           -5.4354    11.8085   -16.3916 H       0      r0     0.0402
   3161 H           -5.3735    13.6134   -18.3355 H       0      r0     0.0823
   3162 C           -5.8878     0.9268    -1.4478 C       0      r0     0.1699
   3163 C           -5.7238     0.4487    -0.0533 C       0      r0    -0.0413
   3164 C           -4.6001     0.1247     0.5599 C       0      r0    -0.0116
   3165 C           -3.2700    -0.1046    -0.0093 C       0      r0     0.1825
   3166 C           -2.9916    -0.4321    -1.5317 C       0      r0     0.0240
   3167 O           -2.3596    -0.0124     0.7080 O       0      r0    -0.4815
   3168 O           -5.0936     1.1832    -2.2628 O       0      r0    -0.4826
   3169 C           -3.2430    -1.8726    -1.7626 C       5      r5     0.1327
   3170 C           -2.6998    -2.7161    -0.7666 C       5      r5    -0.0203
   3171 C           -3.1174    -3.9415    -1.2621 C       5      r5    -0.0257
   3172 C           -3.7895    -3.7796    -2.5418 C       5      r5     0.0709
   3173 O           -3.8729    -2.1542    -2.9101 O       5      r5    -0.4893
   3174 C           -4.2607    -4.7002    -3.1733 C       0      r0    -0.0305
   3175 C           -7.4022     1.1204    -1.7832 C       0      r0     0.0063
   3176 C           -8.4822    -2.4222    -4.2711 C       0      r0     0.1480
   3177 C           -7.1581    -2.0113    -3.9756 C       0      r0    -0.0247
   3178 C           -6.9050    -0.8158    -3.1732 C       0      r0     0.0072
   3179 C           -7.8377     0.0074    -2.6791 C       0      r0     0.1520
   3180 O           -9.1569    -0.0784    -2.8372 O       0      r0    -0.5750
   3181 H           -6.6064     0.5182     0.5041 H       0      r0     0.0522
   3182 H           -4.7866    -0.0695     1.6291 H       0      r0     0.0564
   3183 H           -3.5852     0.1724    -2.2446 H       0      r0     0.1435
   3184 H           -1.9407    -0.0591    -1.6398 H       0      r0     0.1240
   3185 H           -2.1464    -2.4356     0.1289 H       0      r0     0.0830
   3186 H           -2.8948    -4.8817    -0.8000 H       0      r0     0.0844
   3187 H           -4.1357    -5.6888    -2.8312 H       0      r0     0.0666
   3188 H           -4.8189    -4.5026    -4.0760 H       0      r0     0.0636
   3189 H           -8.0573     1.1991    -0.9349 H       0      r0     0.0615
   3190 H           -7.5769     2.0934    -2.1538 H       0      r0     0.0818
   3191 H           -6.2618    -2.4626    -4.2502 H       0      r0     0.0694
   3192 H           -5.8357    -0.7410    -2.9778 H       0      r0     0.1302
   3193 C          -11.9475    -6.5369   -16.7444 C       5      r5     0.1149
   3194 O          -12.1703    -5.4614   -17.9032 O       5      r5    -0.4677
   3195 C          -10.8295    -5.4470   -18.2733 C       5      r5     0.1330
   3196 C           -9.9556    -6.3495   -17.5855 C       5      r5    -0.0198
   3197 C          -10.7047    -6.9660   -16.5578 C       5      r5    -0.0002
   3198 C          -13.0897    -6.9028   -15.9693 C       0      r0     0.0018
   3199 C           -9.0260    -4.4863    17.5486 C       5      r5     0.1300
   3200 O           -8.8015    -4.1351    16.2375 O       5      r5    -0.4661
   3201 C           -7.2255    -4.0478    16.3912 C       5      r5     0.2442
   3202 C           -6.9539    -3.9959    17.9515 C       5      r5    -0.0294
   3203 C           -8.0652    -4.2642    18.6168 C       5      r5    -0.0491
   3204 C          -10.3382    -4.7820    17.9445 C       0      r0     0.0085
   3205 C          -12.8905    -7.7347   -14.8371 C       5      r5     0.1208
   3206 C          -14.2103    -7.9129   -14.3771 C       5      r5    -0.0489
   3207 C          -13.9380    -8.7962   -13.2806 C       5      r5    -0.0443
   3208 C          -12.5297    -9.0336   -13.1692 C       5      r5     0.0916
   3209 O          -11.7366    -8.3527   -14.3136 O       5      r5    -0.4871
   3210 C          -12.3028    -9.7605   -12.2160 C       0      r0    -0.0398
   3211 H           -8.9324    -6.6158   -17.8223 H       0      r0     0.0566
   3212 H          -10.4151    -7.6711   -15.7985 H       0      r0     0.1115
   3213 H          -14.0738    -6.5942   -16.3428 H       0      r0     0.0855
   3214 H           -6.0526    -3.7277    18.3970 H       0      r0     0.0382
   3215 H           -8.1915    -4.3797   -17.7111 H       0      r0     0.0281
   3216 H          -11.1480    -4.7199    17.2571 H       0      r0     0.0861
   3217 H          -15.1161    -7.4350   -14.7126 H       0      r0     0.0561
   3218 H          -14.7019    -9.2128   -12.6692 H       0      r0     0.0650
   3219 H          -13.1879   -10.1925   -11.6098 H       0      r0     0.1263
   3220 H          -11.3071   -10.1056   -11.8790 H       0      r0     0.0488
   3221 C           16.0841     0.8275    17.5935 C       5      r5     0.1444
   3222 O           16.5890     0.6921   -18.5290 O       5      r5    -0.4611
   3223 C           18.0481     0.2820    18.4247 C       5      r5     0.0920
   3224 C           18.2288     0.1264    17.0750 C       5      r5    -0.0443
   3225 C           16.9486     0.4040    16.5323 C       5      r5    -0.0098
   3226 C           14.8907     1.5430    17.3358 C       0      r0     0.0124
   3227 C          -16.7962    -0.0382   -18.3737 C       0      r0     0.1353
   3228 O          -15.9216    -0.8466   -17.6752 O       0      r0    -0.5683
   3229 C          -13.9716     0.0188    17.8474 C       0      r0     0.0247
   3230 C          -15.0379     0.8791    17.5424 C       0      r0    -0.0340
   3231 C          -16.3708     0.7822    17.9980 C       0      r0    -0.0265
   3232 C          -18.2264     0.0603   -18.0299 C       0      r0    -0.0055
   3233 C           14.2402     1.6473    16.0976 C       5      r5     0.1288
   3234 C           13.0596     2.4136    16.0422 C       5      r5    -0.0150
   3235 C           12.5404     2.4847    14.7388 C       5      r5    -0.0238
   3236 C           13.4532     1.5754    14.0939 C       5      r5     0.1027
   3237 O           14.6115     1.0056    14.9123 O       5      r5    -0.4720
   3238 C           13.0747     1.4630    12.8682 C       0      r0    -0.0328
   3239 H          -18.1563    -0.2042    16.5210 H       0      r0     0.0390
   3240 H           16.7269     0.4200    15.4905 H       0      r0     0.0993
   3241 H           14.4325     2.1234    18.1398 H       0      r0     0.0734
   3242 H          -14.8406     1.7163    16.9613 H       0      r0     0.0494
   3243 H          -17.1814     1.3065    17.4974 H       0      r0     0.0322
   3244 H          -18.4408    -0.1535   -17.0079 H       0      r0     0.0702
   3245 H           12.6580     2.9002    16.9564 H       0      r0     0.0759
   3246 H           11.7094     3.0742    14.3914 H       0      r0     0.0983
   3247 H           12.2303     2.0137    12.4478 H       0      r0     0.0612
   3248 H           13.5875     0.6889    12.2005 H       0      r0     0.1102
   3249 C           -4.2453     0.3287   -10.6526 C       5      r5     0.0822
   3250 O           -5.3658     0.2715    -9.4400 O       5      r5    -0.4812
   3251 C           -4.4600     0.1126    -8.4223 C       5      r5     0.1721
   3252 C           -3.0503     0.1175    -8.8316 C       5      r5    -0.0084
   3253 C           -2.9238     0.2025   -10.1926 C       5      r5    -0.0328
   3254 C           -4.5452     0.4854   -11.9744 C       0      r0    -0.0408
   3255 C           -4.7294    -0.0489    -7.1426 C       0      r0     0.1842
   3256 H           -2.2368     0.0051    -8.1121 H       0      r0     0.1067
   3257 H           -1.9577     0.1303   -10.7081 H       0      r0     0.1034
   3258 H           -4.4115     0.5492   -13.0180 H       0      r0     0.0456
   3259 H           -4.0095    -0.2899    -6.3806 H       0      r0     0.1334
   3260 C           -2.3137     0.0314   -15.1805 C       0      r0     0.0898
   3261 O           -2.8683     0.9498   -16.4810 O       0      r0    -0.4654
   3262 C           -4.0395    -0.2002   -16.7270 C       0      r0     0.0927
   3263 C           -4.2298    -1.2309   -15.7143 C       0      r0    -0.0332
   3264 C           -3.0648    -1.1992   -14.8590 C       0      r0    -0.0256
   3265 C           -1.3460     0.3427   -14.3060 C       0      r0    -0.0345
   3266 C           -4.9034    -0.2904   -17.7220 C       0      r0    -0.0418
   3267 H           -4.9587    -2.0072   -15.6970 H       0      r0     0.0482
   3268 H           -2.8611    -1.7949   -14.0103 H       0      r0     0.0571
   3269 H           -0.6763     0.3138   -13.4396 H       0      r0     0.0779
   3270 H           -5.6716    -0.6145   -18.4481 H       0      r0     0.0389
   3271 C          -10.5284   -14.2327    -0.1707 C       5      r5     0.1099
   3272 O          -10.2789   -12.6930     0.1264 O       5      r5    -0.4355
   3273 C          -11.5663   -12.2798    -0.2158 C       5      r5     0.1398
   3274 C          -12.5065   -13.1769    -0.7249 C       5      r5    -0.0294
   3275 C          -11.8592   -14.4041    -0.6952 C       5      r5    -0.0302
   3276 C           -9.7243   -15.2910    -0.0193 C       0      r0    -0.0217
   3277 C          -12.0405   -10.8759    -0.1125 C       0      r0    -0.0234
   3278 H          -13.4956   -12.9100    -1.1447 H       0      r0     0.0517
   3279 H          -12.2757   -15.3558    -0.9751 H       0      r0     0.0360
   3280 H           -9.3227   -16.2714    -0.0019 H       0      r0     0.0612
   3281 H          -12.9752   -10.5735    -0.4831 H       0      r0     0.0426
   3282 C           -2.1766    -5.5789     5.0733 C       5      r5     0.1378
   3283 O           -0.8328    -5.6270     4.6030 O       5      r5    -0.4982
   3284 C           -0.9751    -4.4143     3.6754 C       5      r5     0.1389
   3285 C           -2.3562    -3.9895     3.6897 C       5      r5    -0.0191
   3286 C           -3.1925    -4.6961     4.5719 C       5      r5    -0.0585
   3287 C           -2.7824    -6.2938     6.0121 C       0      r0     0.1323
   3288 C           -0.0610    -3.7599     2.9626 C       0      r0     0.0181
   3289 H           -2.7195    -3.2097     3.1612 H       0      r0     0.0470
   3290 H           -4.2476    -4.6968     4.7885 H       0      r0     0.0245
   3291 H           -3.8244    -6.1652     6.2300 H       0      r0     0.0591
   3292 H            0.3784    -3.0186     2.3080 H       0      r0     0.0622
   3293 C          -10.3305    18.0913    -3.6432 C       5      r5     0.1311
   3294 O           -8.8747    17.7818    -3.8538 O       5      r5    -0.4726
   3295 C           -8.5169    17.7745    -2.3564 C       5      r5     0.1148
   3296 C           -9.6815    18.2279    -1.6197 C       5      r5    -0.0124
   3297 C          -10.8366    18.3525    -2.3745 C       5      r5    -0.0254
   3298 C          -11.3280    18.1647    -4.4763 C       0      r0     0.1344
   3299 C           -7.3317    17.3629    -1.8818 C       0      r0     0.0183
   3300 H           -9.5541    18.4486    -0.5901 H       0      r0     0.0827
   3301 H          -11.8648    18.6915    -2.0437 H       0      r0     0.1182
   3302 H          -12.2783    18.3672    -4.0436 H       0      r0     0.1102
   3303 H           -6.5950    17.1485    -1.1519 H       0      r0     0.1345
   3304 C           11.8451    -4.5365     9.3459 C       5      r5     0.1043
   3305 C           10.4714    -4.8581     9.9653 C       5      r5    -0.0289
   3306 C           10.2380    -6.1654    10.0120 C       5      r5    -0.0048
   3307 C           11.5050    -6.6383     9.4087 C       5      r5     0.1021
   3308 C           12.4747    -6.8809     7.0156 C       5      r5     0.1649
   3309 O           13.4406    -5.8785     6.6204 O       5      r5    -0.4694
   3310 C           12.7879    -4.6484     6.9401 C       5      r5     0.1610
   3311 C           11.5984    -4.8099     7.8320 C       5      r5     0.0187
   3312 C           11.3086    -6.4041     7.8157 C       5      r5     0.0270
   3313 C           13.2178    -3.4806     6.4428 C       0      r0     0.0401
   3314 C           12.2079    -3.1002     9.8231 C       0      r0    -0.0279
   3315 C           11.7639    -8.1558     9.7050 C       0      r0    -0.0073
   3316 C           12.6351    -8.1770     6.5735 C       0      r0     0.0103
   3317 O           12.7576    -5.6434     9.6849 O       5      r5    -0.5175
   3318 C           12.2341     0.0078     6.2620 C       5      r5     0.2047
   3319 C           11.1458    -0.6757     7.1149 C       5      r5    -0.0258
   3320 C           11.3914    -1.9448     7.2729 C       5      r5    -0.0451
   3321 C           12.6536    -2.1690     6.5528 C       5      r5     0.1302
   3322 O           13.2867    -1.1349     5.9012 O       5      r5    -0.4893
   3323 O           10.4103    -9.1237     7.3918 O       5      r5    -0.4994
   3324 C           11.7545    -9.2748     6.8980 C       5      r5     0.1187
   3325 C           12.3506   -10.5176     6.6712 C       5      r5    -0.0451
   3326 C           11.2960   -11.3878     6.9737 C       5      r5    -0.0404
   3327 C           10.1540   -10.6721     7.4213 C       5      r5     0.0962
   3328 O           12.7942    -1.9961    11.9716 O       5      r5    -0.4947
   3329 C           13.1558    -2.5717    13.4905 C       5      r5     0.0762
   3330 C           12.9217    -4.0209    13.3203 C       5      r5    -0.0245
   3331 C           12.6102    -4.3301    12.0346 C       5      r5     0.0037
   3332 C           12.5111    -3.1388    11.3422 C       5      r5     0.1475
   3333 C           11.5295    -8.3804    11.2157 C       5      r5     0.1449
   3334 C           12.6639    -8.2302    12.0212 C       5      r5    -0.0301
   3335 C           12.2252    -8.3527    13.2875 C       5      r5    -0.0321
   3336 C           10.7353    -8.5532    13.4212 C       5      r5     0.0683
   3337 O           10.3391    -8.6057    11.7113 O       5      r5    -0.4498
   3338 C           13.5383    -1.9768    14.4688 C       0      r0    -0.0488
   3339 C            9.0242   -11.2738     7.7441 C       0      r0    -0.0393
   3340 H            9.8037    -4.1599    10.2549 H       0      r0     0.0519
   3341 H            9.4345    -6.7249    10.3045 H       0      r0     0.1115
   3342 H           10.8150    -4.1741     7.4393 H       0      r0     0.0595
   3343 H           10.3723    -6.6893     7.4786 H       0      r0     0.0753
   3344 H           14.0980    -3.5046     5.8138 H       0      r0     0.1227
   3345 H           13.0121    -2.6824     9.2419 H       0      r0     0.0532
   3346 H           11.4185    -2.3636     9.5883 H       0      r0     0.0340
   3347 H           11.0507    -8.8861     9.2561 H       0      r0     0.1107
   3348 H           12.7362    -8.5047     9.3451 H       0      r0     0.0591
   3349 H           13.5725    -8.2906     6.0392 H       0      r0     0.0674
   3350 H           10.3152    -0.1337     7.5234 H       0      r0     0.0586
   3351 H           10.7360    -2.5688     7.7662 H       0      r0     0.0299
   3352 H           13.2857   -10.7415     6.2395 H       0      r0     0.0373
   3353 H           11.3177   -12.4495     6.8802 H       0      r0     0.0352
   3354 H           13.0010    -4.7448    14.1032 H       0      r0     0.0406
   3355 H           12.3942    -5.3423    11.5977 H       0      r0     0.1026
   3356 H           13.6204    -7.9403    11.7268 H       0      r0     0.0630
   3357 H           12.8667    -8.2592    14.1742 H       0      r0     0.1101
   3358 H           13.7999    -2.4433    15.4158 H       0      r0     0.0249
   3359 H           13.7992    -0.9195    14.4150 H       0      r0     0.1068
   3360 H            8.9256   -12.3384     7.5904 H       0      r0     0.0452
   3361 H            8.1453   -10.7604     8.0566 H       0      r0     0.0735
   3362 C           10.3127   -14.0028    11.9144 C       5      r5     0.0806
   3363 C           11.0174   -13.6746    10.6491 C       5      r5    -0.0458
   3364 C           11.6159   -14.8256    10.4282 C       5      r5    -0.0283
   3365 C           11.3597   -15.8143    11.6004 C       5      r5     0.1196
   3366 C           12.1462   -16.0843    14.0375 C       5      r5     0.1688
   3367 O           11.2445   -15.5858    14.9184 O       5      r5    -0.4694
   3368 C           11.0880   -14.1843    14.5048 C       5      r5     0.1247
   3369 C           11.4917   -13.9078    13.0585 C       5      r5    -0.0114
   3370 C           12.2937   -15.3118    12.7575 C       5      r5     0.0269
   3371 C           10.4822   -13.3019    15.3140 C       0      r0     0.0230
   3372 C            9.1702   -13.0074    12.2693 C       0      r0    -0.0199
   3373 C           11.7858   -17.1430    11.1151 C       0      r0     0.0229
   3374 C           12.8855   -17.2397    14.3213 C       0      r0     0.0047
   3375 O            9.9722   -15.6174    12.1036 O       5      r5    -0.4955
   3376 C            9.6233    -9.7553    15.4437 C       5      r5     0.1137
   3377 C           10.4116    -9.7150    14.3024 C       5      r5     0.0108
   3378 C           10.8576   -11.0994    14.1754 C       5      r5    -0.0263
   3379 C           10.2875   -11.8984    15.1367 C       5      r5     0.1278
   3380 O            9.4816   -11.3459    16.0867 O       5      r5    -0.4649
   3381 O           14.1518   -17.1052    12.1446 O       5      r5    -0.4899
   3382 C           13.7855   -17.7379    13.3377 C       5      r5     0.1185
   3383 C           14.2934    18.9235    13.5942 C       5      r5    -0.0317
   3384 C           15.1359    18.4618    12.5583 C       5      r5    -0.0264
   3385 C           15.0032   -18.3589    11.6673 C       5      r5     0.1034
   3386 O            7.0426   -12.0060    11.2450 O       5      r5    -0.4495
   3387 C            6.2008   -12.7620    10.0953 C       5      r5     0.0939
   3388 C            6.7860   -14.0665     9.8567 C       5      r5    -0.0183
   3389 C            7.8731   -14.2437    10.6925 C       5      r5    -0.0095
   3390 C            7.8593   -13.0228    11.4199 C       5      r5     0.1508
   3391 C           10.7123   -17.8807    10.2693 C       0      r0     0.1836
   3392 C            9.2765   -17.6435    10.2157 C       0      r0     0.0165
   3393 C            8.4163   -18.2648     9.3707 C       0      r0     0.0010
   3394 C            8.8556    18.6524     8.4966 C       0      r0     0.0446
   3395 O           11.2464   -18.6627     9.5660 O       0      r0    -0.4578
   3396 C            5.2602   -12.2178     9.5392 C       0      r0    -0.0112
   3397 C           15.6491   -18.6113    10.5991 C       0      r0    -0.0328
   3398 H           11.0248   -12.8331     9.9992 H       0      r0     0.0405
   3399 H           12.2763   -15.0661     9.6041 H       0      r0     0.0458
   3400 H           12.1233   -13.0198    13.1004 H       0      r0     0.0170
   3401 H           13.3683   -15.1723    12.5355 H       0      r0     0.0789
   3402 H           10.1299   -13.6908    16.2589 H       0      r0     0.1264
   3403 H            8.7553   -13.2562    13.2798 H       0      r0     0.0647
   3404 H            9.6390   -12.0415    12.2949 H       0      r0     0.0646
   3405 H           12.6570   -17.0946    10.5191 H       0      r0     0.1092
   3406 H           12.0371   -17.8494    11.8995 H       0      r0     0.0872
   3407 H           12.7663   -17.6944    15.2686 H       0      r0     0.0613
   3408 H           10.1165    -7.7967    13.8785 H       0      r0     0.0852
   3409 H           11.5781   -11.4414    13.4054 H       0      r0     0.0273
   3410 H           14.1056    18.2683    14.3937 H       0      r0     0.0505
   3411 H           15.6757    17.5581    12.5303 H       0      r0     0.0758
   3412 H            6.5077   -14.7616     9.0746 H       0      r0     0.0915
   3413 H            8.6060   -15.0523    10.7771 H       0      r0     0.1103
   3414 H            8.9225   -16.8843    10.9465 H       0      r0     0.0928
   3415 H            7.3707   -17.9770     9.2799 H       0      r0     0.0681
   3416 H            4.7735   -12.7853     8.7877 H       0      r0     0.0717
   3417 H            4.9834   -11.1879     9.7415 H       0      r0     0.0867
   3418 H           16.2504    18.4006    10.4705 H       0      r0     0.1059
   3419 H           15.6298   -17.8854     9.7521 H       0      r0     0.0532
   3420 C           17.1940    -1.6365    10.7705 C       6      r6     0.1400
   3421 C           18.3727    -2.5260    10.4131 C       6      r6     0.0352
   3422 C           18.1839    -3.8288    10.5223 C       6      r6    -0.0234
   3423 C           16.9286    -4.4366    10.9107 C       6      r6    -0.0339
   3424 C           15.7888    -4.1178     8.6583 C       5      r5     0.1480
   3425 O           16.0037    -3.0141     7.8346 O       5      r5    -0.4945
   3426 C           15.6905    -1.8946     8.6220 C       5      r5     0.1421
   3427 C           15.8880    -2.1228    10.0893 C       5      r5     0.0057
   3428 C           15.7777    -3.7985    10.1603 C       5      r5    -0.0236
   3429 C           15.0627    -0.7504     8.1532 C       0      r0    -0.0063
   3430 C           16.9744    -1.6958    12.2708 C       0      r0     0.0020
   3431 C           16.8126    -5.5114    11.7994 C       0      r0    -0.0199
   3432 C           15.8267    -5.3597     8.1344 C       0      r0     0.0330
   3433 O           17.5278    -0.2648    10.3280 O       0      r0    -0.5254
   3434 C           14.5294     2.2263    10.0278 C       5      r5     0.1160
   3435 C           14.0000     2.6551     8.7832 C       5      r5     0.0005
   3436 C           14.1794     1.4766     8.0432 C       5      r5    -0.0230
   3437 C           14.7940     0.4507     8.8339 C       5      r5     0.1133
   3438 O           15.0741     0.7469    10.1756 O       5      r5    -0.5022
   3439 O           15.0539    -6.8379     9.9621 O       0      r0    -0.5704
   3440 C           15.4958    -6.6246     8.7457 C       0      r0     0.1728
   3441 C           15.8561    -7.4740     7.7204 C       0      r0    -0.0159
   3442 C           15.8065    -8.9230     7.8258 C       0      r0    -0.0326
   3443 C           15.5088    -9.6990     8.9554 C       0      r0     0.0076
   3444 O          -18.2664    -0.4062    12.9638 O       5      r5    -0.4250
   3445 C          -17.0835    -1.0571    14.1121 C       5      r5     0.0671
   3446 C          -17.5198    -2.2646    14.6403 C       5      r5    -0.0441
   3447 C           18.4375    -2.3956    14.1170 C       5      r5    -0.0186
   3448 C           18.2057    -1.3787    13.1811 C       5      r5     0.1770
   3449 C           17.8463    -6.0493    12.5832 C       6      r6     0.1258
   3450 C           17.1844    -7.1773    13.1523 C       6      r6    -0.0277
   3451 C          -18.1147    -7.3170    14.7897 C       6      r6     0.0037
   3452 C          -17.3506    -6.2580    14.0479 C       6      r6     0.0856
   3453 O          -18.0914    -5.6570    12.7854 O       6      r6    -0.4672
   3454 C          -16.2046    -5.8095    14.4617 C       0      r0    -0.0506
   3455 C           14.4756     3.2250    10.8294 C       0      r0    -0.0246
   3456 H          -18.0183    -2.0486    10.1420 H       0      r0     0.1444
   3457 H          -18.3349    -4.5715    10.4398 H       0      r0     0.0868
   3458 H           15.0286    -1.6292    10.5443 H       0      r0     0.0894
   3459 H           14.8223    -4.0303    10.5063 H       0      r0     0.0640
   3460 H           14.7263    -0.8253     7.0796 H       0      r0     0.1113
   3461 H           16.1536    -1.0486    12.5183 H       0      r0     0.0824
   3462 H           16.4840    -2.6441    12.5011 H       0      r0     0.0290
   3463 H           14.1318    -6.2546    10.1152 H       0      r0     0.3383
   3464 H           15.8287    -5.9676    11.8926 H       0      r0     0.0704
   3465 H           15.9380    -5.2713     7.1039 H       0      r0     0.1304
   3466 H           13.6015     3.5898     8.4066 H       0      r0     0.1146
   3467 H           13.9436     1.2558     7.0205 H       0      r0     0.0854
   3468 H           16.2250    -7.1474     6.7670 H       0      r0     0.0618
   3469 H           16.0621    -9.5134     6.9337 H       0      r0     0.0816
   3470 H          -17.0219    -3.0044    15.2395 H       0      r0     0.0298
   3471 H           17.7639    -3.1836    14.3037 H       0      r0     0.0450
   3472 H           16.2529    -7.6543    12.9594 H       0      r0     0.0487
   3473 H           15.7137   -11.4922   -17.5763 H       0      r0     0.3003
   3474 H          -15.6539    -6.1765    15.2873 H       0      r0     0.0218
   3475 H          -15.8066    -5.0050    13.9067 H       0      r0     0.0916
   3476 H           14.0476     4.2410    10.5491 H       0      r0     0.0700
   3477 H           14.7555     3.2498    11.8785 H       0      r0     0.0524
   3478 C           15.1815   -10.6417    18.0363 C       6      r6     0.1083
   3479 C           14.0480   -10.7838    17.0264 C       6      r6    -0.0283
   3480 C           13.5904   -11.9702    16.7721 C       6      r6    -0.0395
   3481 C           14.2817   -12.9020    17.6277 C       6      r6     0.0060
   3482 C           16.6031   -13.7237    18.5420 C       5      r5     0.1540
   3483 O           17.4621   -12.8602   -18.2147 O       5      r5    -0.4842
   3484 C           17.5869   -11.7233    18.2891 C       5      r5     0.1402
   3485 C           16.3812   -11.5018    17.4200 C       5      r5    -0.0033
   3486 C           15.7860   -13.0424    17.4083 C       5      r5    -0.0029
   3487 C          -18.5525   -11.0576    18.2272 C       0      r0     0.0103
   3488 C           15.7522    -9.2698    18.2917 C       0      r0     0.0264
   3489 C           13.5754   -13.5355   -18.5529 C       0      r0    -0.0032
   3490 C           16.6889   -15.0456   -18.6744 C       0      r0     0.0180
   3491 O           14.8819   -11.1157   -17.9643 O       0      r0    -0.5724
   3492 C          -17.9991    -8.3476    15.8171 C       5      r5     0.1116
   3493 C          -16.7885    -8.3734    16.5301 C       5      r5    -0.0363
   3494 C          -16.9882    -9.4104    17.4152 C       5      r5    -0.0257
   3495 C          -18.2564   -10.0069    17.2583 C       5      r5     0.1294
   3496 O           18.2410    -9.4488    16.2618 O       5      r5    -0.4676
   3497 O           15.2363   -15.9265    16.8452 O       5      r5    -0.4871
   3498 C           16.0075   -16.0570    17.9916 C       5      r5     0.1249
   3499 C           16.0833   -17.3778    18.5008 C       5      r5    -0.0134
   3500 C           15.5373   -18.3191    17.6315 C       5      r5    -0.0291
   3501 C           14.9790   -17.5205    16.6196 C       5      r5     0.0744
   3502 O           15.5638    -7.7336   -17.4024 O       0      r0    -0.4523
   3503 C           13.1286    -6.9255   -16.2067 C       0      r0     0.1987
   3504 C           12.6644    -7.9840   -16.9855 C       0      r0    -0.0062
   3505 C           13.5166    -8.6538   -17.9148 C       0      r0     0.0223
   3506 C           14.9214    -8.4852   -18.0491 C       0      r0     0.2165
   3507 C           12.2684   -14.3072    18.5099 C       5      r5     0.1591
   3508 C           12.4626   -15.5804    18.1387 C       5      r5     0.0066
   3509 C           11.1761   -16.1428    18.0664 C       5      r5     0.0031
   3510 C           10.1268   -15.1859    18.3823 C       5      r5     0.0980
   3511 O           11.0320   -13.7851    18.6845 O       5      r5    -0.4785
   3512 C            8.9245   -15.3008    18.3629 C       0      r0    -0.0185
   3513 C           18.0631    -7.5472    14.1522 C       6      r6     0.0168
   3514 H           13.6166    -9.8446    16.5792 H       0      r0     0.1044
   3515 H           12.7071   -12.1165    16.1436 H       0      r0     0.0597
   3516 H           16.5467   -11.0611    16.4216 H       0      r0     0.0674
   3517 H           15.9133   -13.6450    16.5799 H       0      r0     0.0749
   3518 H          -17.8228   -11.3565   -18.4291 H       0      r0     0.0732
   3519 H           16.7633    -9.3167    18.6838 H       0      r0     0.0927
   3520 H           15.9398    -8.6405    17.5113 H       0      r0     0.0803
   3521 H           14.1969   -14.2323   -17.9480 H       0      r0     0.0644
   3522 H           13.4360   -12.6082   -17.9298 H       0      r0     0.1155
   3523 H           17.4614   -15.2459   -17.8459 H       0      r0     0.0786
   3524 H          -15.9538    -7.7888    16.3882 H       0      r0     0.0357
   3525 H          -16.2704    -9.7277    18.1539 H       0      r0     0.0430
   3526 H           16.5175   -17.6440   -17.9934 H       0      r0     0.0690
   3527 H           15.5376    18.5453    17.7688 H       0      r0     0.0709
   3528 H           11.6002    -8.1824   -16.8931 H       0      r0     0.1087
   3529 H           13.1015    -9.4112   -18.6110 H       0      r0     0.0817
   3530 H           13.4125   -16.1365    18.0294 H       0      r0     0.0887
   3531 H           10.9860   -17.2008    18.0651 H       0      r0     0.0594
   3532 H            8.3250   -16.2186    18.1984 H       0      r0     0.0852
   3533 H            8.3148   -14.3923    18.6570 H       0      r0     0.0689
   3534 H           16.6830     0.1927    10.1438 H       0      r0     0.3582
   3535 H          -15.9023    -0.5100   -16.8109 H       0      r0     0.3499
   3536 C            9.4845     2.3635     9.7909 C       0      r0     0.2314
   3537 C           10.6037     1.3905     9.8772 C       0      r0     0.0197
   3538 C           10.7386     0.5416    10.8601 C       0      r0    -0.0208
   3539 C            9.7078     0.0573    11.7806 C       0      r0     0.1642
   3540 C           10.1312    -1.0575    12.8233 C       0      r0     0.0021
   3541 O            8.6065     0.4597    11.8602 O       0      r0    -0.4758
   3542 O            8.9849     2.6954     8.7926 O       0      r0    -0.4646
   3543 C            9.2935    -2.3000    12.7158 C       5      r5     0.1474
   3544 C            8.2475    -2.4330    11.8229 C       5      r5    -0.0134
   3545 C            7.7847    -3.7242    11.9742 C       5      r5    -0.0242
   3546 C            8.4857    -4.4654    13.0290 C       5      r5     0.0908
   3547 O            9.5757    -3.3485    13.5450 O       5      r5    -0.4639
   3548 C            8.4761    -5.5646    13.5230 C       0      r0    -0.0164
   3549 C            9.1183     3.0995    11.1264 C       0      r0     0.0141
   3550 C           12.1845     5.1488    11.8448 C       5      r5     0.0706
   3551 C           11.3385     5.5972    12.8598 C       5      r5    -0.0259
   3552 C           10.1346     4.9263    12.5503 C       5      r5    -0.0063
   3553 C           10.2873     4.0339    11.5026 C       5      r5     0.1431
   3554 O           11.4663     3.9603    10.9197 O       5      r5    -0.4683
   3555 H           11.4571     1.4163     9.2226 H       0      r0     0.0742
   3556 H           11.5856    -0.1501    10.9017 H       0      r0     0.0667
   3557 H           11.2404    -1.2227    12.7648 H       0      r0     0.1066
   3558 H           10.2019    -0.7096    13.8420 H       0      r0     0.0481
   3559 H            7.9033    -1.7227    11.0805 H       0      r0     0.0761
   3560 H            6.9491    -4.0459    11.3554 H       0      r0     0.0631
   3561 H            7.7942    -6.3319    13.2582 H       0      r0     0.0696
   3562 H            9.1278    -5.8862    14.3271 H       0      r0     0.0666
   3563 H            8.1135     3.6553    11.1377 H       0      r0     0.0440
   3564 H            8.8667     2.4332    11.9538 H       0      r0     0.1096
   3565 H           11.4484     6.3974    13.6350 H       0      r0     0.0674
   3566 H            9.2942     4.9768    13.1190 H       0      r0     0.0730
   3567 C           11.4715     4.1900   -15.2552 C       0      r0     0.1525
   3568 C           10.6196     3.2140   -14.6037 C       0      r0    -0.0489
   3569 C           10.7118     2.5880   -13.3695 C       0      r0    -0.0253
   3570 C           11.6604     2.5270   -12.3821 C       0      r0     0.1471
   3571 C           13.0874     3.0586   -12.6977 C       0      r0    -0.0067
   3572 O           11.4615     1.9437   -11.2213 O       0      r0    -0.4892
   3573 O           12.4385     4.7575   -14.9068 O       0      r0    -0.5017
   3574 C           14.1009     1.9764   -13.2369 C       5      r5     0.1563
   3575 C           14.6251     1.2754   -12.1474 C       5      r5    -0.0256
   3576 C           15.4232     0.3145   -12.6868 C       5      r5    -0.0368
   3577 C           15.4123     0.5297   -14.1511 C       5      r5     0.0854
   3578 O           14.4296     1.8247   -14.5029 O       5      r5    -0.4503
   3579 C           16.0218    -0.0929   -15.0007 C       0      r0    -0.0355
   3580 C           11.0275     4.3374   -16.7593 C       0      r0    -0.0051
   3581 C           11.9347     0.1893   -18.2089 C       0      r0     0.0127
   3582 C           12.3422     0.8427   -17.0352 C       0      r0    -0.0054
   3583 C           12.1443     2.2247   -16.7316 C       0      r0     0.0094
   3584 C           11.2093     3.0160   -17.3825 C       0      r0     0.1537
   3585 O           10.3870     2.7245   -18.3289 O       0      r0    -0.4705
   3586 H            9.7441     2.8346   -15.0889 H       0      r0     0.0287
   3587 H            9.7819     2.0525   -13.1148 H       0      r0     0.0552
   3588 H           13.1387     3.9261   -13.4027 H       0      r0     0.1253
   3589 H           13.1950     3.4522   -11.6360 H       0      r0     0.0549
   3590 H           14.3801     1.4515   -11.1124 H       0      r0     0.0478
   3591 H           15.9727    -0.4274   -12.0939 H       0      r0     0.0524
   3592 H           16.7724    -0.8433   -14.8304 H       0      r0     0.0351
   3593 H           15.8557     0.1431   -16.0620 H       0      r0     0.1024
   3594 H            9.9993     4.6782   -16.8445 H       0      r0     0.0521
   3595 H           11.5248     5.1656   -17.3095 H       0      r0     0.0718
   3596 H           13.0287     0.2015   -16.4908 H       0      r0     0.0894
   3597 H           12.6889     2.6092   -15.8665 H       0      r0     0.1253
   3598 C            6.0722    -5.3462    16.3876 C       5      r5     0.1540
   3599 O            5.7604    -4.0275    16.6917 O       5      r5    -0.4942
   3600 C            7.2327    -3.6399    17.0817 C       5      r5     0.1008
   3601 C            8.1959    -4.5906    16.8799 C       5      r5    -0.0218
   3602 C            7.4283    -5.7440    16.5625 C       5      r5    -0.0007
   3603 C            5.0751    -6.3187    16.0387 C       0      r0     0.0145
   3604 C            8.5780    -1.5955    17.6559 C       0      r0     0.1251
   3605 O            8.5057    -0.3913    18.5370 O       0      r0    -0.4769
   3606 C           11.4778    -0.4940    18.1227 C       0      r0     0.0041
   3607 C           10.9689    -1.2484    17.0380 C       0      r0    -0.0394
   3608 C            9.6971    -1.9096    16.9721 C       0      r0    -0.0202
   3609 C            7.3884    -2.3130    17.5057 C       0      r0     0.0324
   3610 C            5.4268    -7.5962    15.6336 C       5      r5     0.1369
   3611 C            4.3028    -8.5031    15.3968 C       5      r5    -0.0123
   3612 C            4.7232    -9.7396    14.9460 C       5      r5    -0.0267
   3613 C            6.1648    -9.5435    15.0194 C       5      r5     0.1259
   3614 O            6.6929    -8.1343    15.4201 O       5      r5    -0.4731
   3615 C            6.6990   -10.6514    14.6443 C       0      r0    -0.0102
   3616 H            9.3082    -4.5066    17.0062 H       0      r0     0.0882
   3617 H            7.8031    -6.7617    16.3644 H       0      r0     0.1029
   3618 H            4.0302    -6.0890    16.2028 H       0      r0     0.0646
   3619 H           11.6214    -1.3844    16.2012 H       0      r0     0.0407
   3620 H            9.4323    -2.6977    16.2577 H       0      r0     0.0591
   3621 H            6.4943    -1.8210    17.8850 H       0      r0     0.1419
   3622 H            3.2679    -8.2850    15.5939 H       0      r0     0.0878
   3623 H            4.0702   -10.6150    14.7616 H       0      r0     0.0415
   3624 H            6.1405   -11.5541    14.4302 H       0      r0     0.0501
   3625 H            7.7773   -10.7709    14.5926 H       0      r0     0.1076
   3626 C           -6.7321   -11.8080    15.7107 C       5      r5     0.1597
   3627 O           -6.2033   -10.5646    15.5664 O       5      r5    -0.4601
   3628 C           -5.5915   -10.7875    14.1549 C       5      r5     0.1050
   3629 C           -5.7378   -12.0586    13.6359 C       5      r5    -0.0306
   3630 C           -6.5211   -12.7275    14.6023 C       5      r5     0.0038
   3631 C           -7.5025   -12.1994    16.8250 C       0      r0     0.0027
   3632 C           -4.2053    -9.8503    12.2538 C       5      r5     0.1270
   3633 O           -4.0755    -8.8298    11.3514 O       5      r5    -0.4564
   3634 C           -3.2594    -9.7383    10.2361 C       5      r5     0.1037
   3635 C           -2.8674   -10.9656    10.7284 C       5      r5    -0.0361
   3636 C           -3.4796   -11.0136    11.9866 C       5      r5    -0.0296
   3637 C           -5.0415    -9.7354    13.3891 C       0      r0     0.0009
   3638 C           -7.9457   -13.5386    16.9482 C       5      r5     0.1213
   3639 C           -8.7992   -13.7166    18.1160 C       5      r5    -0.0339
   3640 C           -9.3633   -14.9736    18.1652 C       5      r5    -0.0215
   3641 C           -8.7580   -15.5345    16.9686 C       5      r5     0.0950
   3642 O           -7.7446   -14.6025    16.1179 O       5      r5    -0.4774
   3643 C           -9.1091   -16.7113    16.8210 C       0      r0    -0.0218
   3644 H           -5.4097   -12.3895    12.6858 H       0      r0     0.0443
   3645 H           -6.8620   -13.7431    14.4903 H       0      r0     0.1092
   3646 H           -7.9165   -11.5257    17.6139 H       0      r0     0.0520
   3647 H           -2.3576   -11.7228    10.2296 H       0      r0     0.0405
   3648 H           -3.3636   -11.8867    12.6001 H       0      r0     0.0408
   3649 H           -5.1228    -8.7337    13.7287 H       0      r0     0.0815
   3650 H           -9.0778   -12.9480   -18.5808 H       0      r0     0.0518
   3651 H          -10.0686   -15.3500   -18.4991 H       0      r0     0.1070
   3652 H           -9.7399   -17.2101    17.5105 H       0      r0     0.0415
   3653 H           -8.6951   -17.3981    16.0399 H       0      r0     0.1347
   3654 C            2.4352   -16.5457     9.7985 C       5      r5     0.1219
   3655 O            1.6890   -17.6060    10.5174 O       5      r5    -0.4910
   3656 C            2.8788   -17.9036    11.3652 C       5      r5     0.1155
   3657 C            4.0705   -17.1284    11.0118 C       5      r5    -0.0372
   3658 C            3.7878   -16.2354     9.9983 C       5      r5    -0.0521
   3659 C            2.0237   -15.7399     8.8512 C       0      r0     0.1233
   3660 C            2.9385   -18.7773    12.3856 C       0      r0    -0.0255
   3661 H            5.0253   -17.2538    11.4679 H       0      r0     0.0590
   3662 H            4.4003   -15.4895     9.5699 H       0      r0     0.0491
   3663 H            2.7090   -15.0485     8.3525 H       0      r0     0.0774
   3664 H            3.3202    18.5098    13.1501 H       0      r0     0.0482
   3665 C           17.3407     3.8532   -11.0321 C       5      r5     0.1313
   3666 O           18.5513     4.7054   -11.2154 O       5      r5    -0.4993
   3667 C           17.7630     5.7566   -12.0806 C       5      r5     0.1023
   3668 C           16.3843     5.4412   -12.1602 C       5      r5    -0.0060
   3669 C           16.1161     4.2409   -11.5183 C       5      r5    -0.0100
   3670 C           17.4501     2.5137   -10.4588 C       0      r0    -0.0125
   3671 C           18.2768     6.8371   -12.6230 C       0      r0    -0.0344
   3672 H           15.6092     5.9936   -12.6471 H       0      r0     0.0506
   3673 H           15.1727     3.7014   -11.4025 H       0      r0     0.0392
   3674 H           16.5700     1.8975   -10.2419 H       0      r0     0.0593
   3675 H           18.4083     7.7362   -13.1169 H       0      r0     0.0712
   3676 C            1.5228   -12.3716    -7.3852 C       5      r5     0.1107
   3677 O            2.4364   -11.1778    -7.9388 O       5      r5    -0.4634
   3678 C            2.8099   -10.7176    -6.6961 C       5      r5     0.1350
   3679 C            2.3152   -11.3173    -5.4987 C       5      r5    -0.0267
   3680 C            1.4868   -12.2887    -5.9036 C       5      r5    -0.0313
   3681 C            0.8400   -13.2102    -8.1227 C       0      r0    -0.0043
   3682 C            3.7103    -9.6007    -6.3877 C       0      r0    -0.0286
   3683 H            2.5924   -11.0214    -4.5042 H       0      r0     0.0722
   3684 H            0.9952   -12.9438    -5.2311 H       0      r0     0.0457
   3685 H            0.2440   -13.9220    -8.5737 H       0      r0     0.0656
   3686 H            4.0599    -9.4858    -5.3607 H       0      r0     0.0815
   3687 C          -18.0671   -15.6870   -13.3944 C       5      r5     0.1024
   3688 O          -17.8806   -17.0409   -12.5412 O       5      r5    -0.4759
   3689 C           18.2132   -16.8294   -11.8694 C       5      r5     0.1806
   3690 C           17.4605   -15.5646   -12.0908 C       5      r5    -0.0096
   3691 C           18.1635   -14.7876   -13.0345 C       5      r5    -0.0256
   3692 C          -17.3699   -15.0745   -14.3284 C       0      r0    -0.0311
   3693 C           17.4776   -17.4595   -10.9718 C       0      r0     0.1721
   3694 H           16.5545   -15.2467   -11.6212 H       0      r0     0.0859
   3695 H           17.9469   -13.8095   -13.4434 H       0      r0     0.0551
   3696 H          -16.6771   -14.7063   -15.0777 H       0      r0     0.0868
   3697 H           16.5120   -17.0250   -10.6022 H       0      r0     0.1168
   3698 C           -2.3706    17.9987    10.4113 C       5      r5     0.1607
   3699 O           -3.5102    18.2733    11.1022 O       5      r5    -0.4907
   3700 C           -2.8734    17.7647    12.4871 C       5      r5     0.1000
   3701 C           -1.5276    17.2704    12.4843 C       5      r5    -0.0156
   3702 C           -1.2155    17.3665    11.1412 C       5      r5    -0.0183
   3703 C           -1.9717    18.1050     9.2091 C       0      r0     0.1697
   3704 C           -3.2951    17.7434    13.7067 C       0      r0    -0.0210
   3705 H           -0.8749    17.0268    13.2988 H       0      r0     0.1002
   3706 H           -0.2922    17.1601    10.5888 H       0      r0     0.0762
   3707 H           -0.9735    17.7272     8.9828 H       0      r0     0.1344
   3708 H           -3.8770    17.7450    14.6343 H       0      r0     0.0566
   3709 C           -7.0830     0.4711     9.9758 C       5      r5     0.1076
   3710 C           -8.0983    -0.4139     9.3843 C       5      r5    -0.0310
   3711 C           -7.6581    -1.2882     8.5246 C       5      r5    -0.0281
   3712 C           -6.1969    -0.9384     8.6251 C       5      r5     0.0969
   3713 C           -4.8008     0.9446     7.4927 C       5      r5     0.1407
   3714 O           -4.4485     1.9535     8.4692 O       5      r5    -0.4876
   3715 C           -5.6014     2.4144     8.9742 C       5      r5     0.1624
   3716 C           -6.7409     1.4474     8.8534 C       5      r5     0.0225
   3717 C           -6.1591     0.3535     7.7480 C       5      r5     0.0173
   3718 C           -5.7333     3.7424     9.3487 C       0      r0    -0.0036
   3719 C           -7.6184     1.2098    11.1915 C       0      r0    -0.0097
   3720 C           -5.2005    -2.0481     8.1280 C       0      r0    -0.0155
   3721 C           -4.0364     0.6749     6.3876 C       0      r0    -0.0039
   3722 O           -5.9086    -0.3186    10.1084 O       5      r5    -0.4717
   3723 C           -8.4191     6.6496    11.2171 C       0      r0     0.1941
   3724 C           -7.4437     6.8274    10.2295 C       0      r0     0.0034
   3725 C           -6.5142     5.7077     9.8329 C       0      r0    -0.0198
   3726 C           -6.8884     4.4300     9.7711 C       0      r0     0.1215
   3727 O           -8.1756     3.9076    10.0659 O       0      r0    -0.5063
   3728 O           -5.2509    -1.1899     5.2524 O       5      r5    -0.4678
   3729 C           -4.2284    -0.2963     5.3388 C       5      r5     0.1239
   3730 C           -3.3034    -0.1937     4.2871 C       5      r5    -0.0357
   3731 C           -3.5334    -1.1658     3.2889 C       5      r5    -0.0409
   3732 C           -4.7300    -1.7291     3.8106 C       5      r5     0.0853
   3733 O           -8.3406     0.7498    13.5787 O       5      r5    -0.4640
   3734 C           -8.4308    -0.6345    14.3129 C       5      r5     0.1106
   3735 C           -7.7089    -1.5985    13.5128 C       5      r5    -0.0113
   3736 C           -7.1994    -0.9565    12.3834 C       5      r5     0.0059
   3737 C           -7.7005     0.3125    12.4647 C       5      r5     0.1517
   3738 C           -5.0387    -3.1588     9.2011 C       5      r5     0.1431
   3739 C           -5.8031    -4.3142     8.9944 C       5      r5    -0.0382
   3740 C           -5.5090    -5.1608     9.9866 C       5      r5    -0.0456
   3741 C           -4.6485    -4.4138    10.9599 C       5      r5     0.0864
   3742 O           -4.2977    -3.0223    10.2976 O       5      r5    -0.4543
   3743 C           -9.0210    -0.9182    15.4594 C       0      r0    -0.0241
   3744 C           -5.1549    -2.6169     3.0109 C       0      r0    -0.0551
   3745 H           -9.1188    -0.2824     9.6674 H       0      r0     0.0405
   3746 H           -8.0838    -2.0627     7.9228 H       0      r0     0.0883
   3747 H           -7.7343     1.9139     8.6469 H       0      r0     0.0677
   3748 H           -6.6484     0.1198     6.8170 H       0      r0     0.0792
   3749 H           -4.8295     4.3843     9.3639 H       0      r0     0.0478
   3750 H           -7.1599     2.2072    11.3781 H       0      r0     0.0828
   3751 H           -8.6174     1.5611    10.9747 H       0      r0     0.0639
   3752 H           -5.2518    -2.4708     7.1296 H       0      r0     0.0641
   3753 H           -4.2385    -1.4308     8.0256 H       0      r0     0.0767
   3754 H           -3.1545     1.3206     6.5372 H       0      r0     0.0729
   3755 H           -7.2255     7.8351     9.9468 H       0      r0     0.0957
   3756 H           -5.5311     5.9970     9.6163 H       0      r0     0.0634
   3757 H           -2.4638     0.4968     4.2847 H       0      r0     0.0397
   3758 H           -3.0005    -1.2703     2.3252 H       0      r0     0.0835
   3759 H           -7.4958    -2.6428    13.7623 H       0      r0     0.0835
   3760 H           -6.6048    -1.4099    11.5659 H       0      r0     0.1257
   3761 H           -6.4687    -4.5474     8.1133 H       0      r0     0.0352
   3762 H           -5.8324    -6.2024    10.1400 H       0      r0     0.0439
   3763 H           -8.9993    -1.8785    15.9484 H       0      r0     0.0826
   3764 H           -9.5924    -0.1757    16.0257 H       0      r0     0.1089
   3765 H           -4.7332    -2.8241     2.0313 H       0      r0     0.0362
   3766 H           -6.1140    -3.0996     3.1705 H       0      r0     0.0505
   3767 C           -9.2329    -7.0335    11.6280 C       5      r5     0.0908
   3768 C           -9.2981    -7.5571    10.2312 C       5      r5    -0.0161
   3769 C          -10.0625    -8.5827    10.4416 C       5      r5    -0.0303
   3770 C          -10.4245    -8.7644    11.9409 C       5      r5     0.1136
   3771 C           -9.1707    -9.5764    14.0097 C       5      r5     0.1765
   3772 O           -8.8932    -8.5148    14.7682 O       5      r5    -0.4809
   3773 C           -8.1411    -7.6270    13.8768 C       5      r5     0.1428
   3774 C           -8.2737    -7.9684    12.4260 C       5      r5    -0.0053
   3775 C           -9.1677    -9.2338    12.5751 C       5      r5     0.0357
   3776 C           -7.5282    -6.6069    14.5197 C       0      r0     0.0377
   3777 C           -8.7607    -5.4645    11.5872 C       0      r0    -0.0248
   3778 C          -11.6963    -9.7991    12.0814 C       0      r0    -0.0356
   3779 C           -9.3477   -10.8917    14.5168 C       0      r0     0.0032
   3780 O          -10.5848    -7.4579    12.4801 O       5      r5    -0.4624
   3781 C           -4.9531    -3.4650    13.3317 C       0      r0     0.1689
   3782 C           -5.2156    -4.4191    12.4622 C       0      r0     0.0053
   3783 C           -6.1670    -5.4611    12.8993 C       0      r0    -0.0284
   3784 C           -6.6692    -5.5460    14.1305 C       0      r0     0.1378
   3785 O           -6.3407    -4.6453    15.1376 O       0      r0    -0.4617
   3786 O           -9.7861   -11.9247    12.2752 O       5      r5    -0.5090
   3787 C           -9.6003   -11.9632    13.6625 C       5      r5     0.1188
   3788 C           -9.7941   -13.2037    14.3414 C       5      r5    -0.0185
   3789 C          -10.0444   -14.2809    13.4171 C       5      r5    -0.0329
   3790 C          -10.0743   -13.4946    12.2227 C       5      r5     0.0964
   3791 O          -10.4163    -4.8148     9.7745 O       5      r5    -0.4744
   3792 C          -11.5433    -3.5533     9.7784 C       5      r5     0.0814
   3793 C          -11.2560    -2.9304    11.0780 C       5      r5    -0.0129
   3794 C          -10.2970    -3.6056    11.7944 C       5      r5    -0.0233
   3795 C           -9.8035    -4.5775    10.9420 C       5      r5     0.1494
   3796 C          -12.8097    -9.3115    13.0012 C       0      r0     0.1016
   3797 C          -12.4486    -8.9875    14.2111 C       0      r0     0.0025
   3798 C          -13.4359    -8.3374    15.1841 C       0      r0    -0.0196
   3799 C          -13.4867    -8.6376    16.5041 C       0      r0     0.1099
   3800 O          -14.3169    -9.3120    12.4927 O       0      r0    -0.5015
   3801 C          -12.4258    -3.2919     8.9894 C       0      r0    -0.0433
   3802 C          -10.4245   -14.2680    11.2634 C       0      r0    -0.0242
   3803 H           -8.9157    -7.1305     9.3789 H       0      r0     0.0883
   3804 H          -10.3467    -9.2113     9.6361 H       0      r0     0.0544
   3805 H           -7.3282    -8.0114    11.8444 H       0      r0     0.0327
   3806 H           -8.7477   -10.0659    11.9562 H       0      r0     0.0762
   3807 H           -7.8276    -6.6189    15.5225 H       0      r0     0.1277
   3808 H           -8.4905    -5.0184    12.5961 H       0      r0     0.0501
   3809 H           -7.7281    -5.4360    11.0968 H       0      r0     0.0328
   3810 H          -12.3936    -9.7736    11.2503 H       0      r0     0.0647
   3811 H          -11.2200   -10.8233    12.1549 H       0      r0     0.0994
   3812 H           -9.3073   -11.0621    15.5716 H       0      r0     0.0493
   3813 H           -3.7865    -5.0530    11.3189 H       0      r0     0.0798
   3814 H           -6.3649    -6.3039    12.3339 H       0      r0     0.0324
   3815 H           -9.8424   -13.4124    15.4032 H       0      r0     0.0705
   3816 H          -10.2333   -15.3093    13.6559 H       0      r0     0.0587
   3817 H          -11.7748    -2.0774    11.5061 H       0      r0     0.1124
   3818 H           -9.9396    -3.3996    12.8138 H       0      r0     0.0486
   3819 H          -11.5180    -9.2477    14.6215 H       0      r0     0.0867
   3820 H          -14.1486    -7.7200    14.7186 H       0      r0     0.0552
   3821 H          -13.1002    -2.5343     9.2618 H       0      r0     0.0587
   3822 H          -12.6103    -3.6795     7.9933 H       0      r0     0.0388
   3823 H          -10.6409   -15.3027    11.4469 H       0      r0     0.0531
   3824 H          -10.6253   -13.8177    10.2525 H       0      r0     0.0862
   3825 C            0.7723    -3.1695     8.0708 C       6      r6     0.0963
   3826 C           -0.7184    -2.8905     8.2243 C       6      r6    -0.0093
   3827 C           -1.6763    -3.8285     8.4162 C       6      r6    -0.0349
   3828 C           -1.0161    -5.0590     8.4658 C       6      r6    -0.0147
   3829 C            0.7656    -6.5851     7.6434 C       5      r5     0.1539
   3830 O            2.0687    -6.2308     7.8369 O       5      r5    -0.5094
   3831 C            2.2093    -5.0195     7.1460 C       5      r5     0.1492
   3832 C            0.9118    -4.2270     7.0084 C       5      r5    -0.0039
   3833 C           -0.0745    -5.4418     7.3793 C       5      r5     0.0051
   3834 C            3.3750    -4.6958     6.4496 C       0      r0     0.0199
   3835 C            1.4104    -1.8564     7.6903 C       0      r0     0.0164
   3836 C           -1.6075    -6.1237     9.4048 C       0      r0    -0.0236
   3837 C            0.2646    -7.8785     7.3804 C       0      r0     0.0091
   3838 O            1.4027    -3.6826     9.4213 O       0      r0    -0.6214
   3839 C            3.5789    -1.9235     4.2077 C       5      r5     0.1198
   3840 C            4.8779    -2.5783     4.1260 C       5      r5    -0.0257
   3841 C            4.9398    -3.6196     5.0197 C       5      r5    -0.0159
   3842 C            3.6421    -3.5830     5.6099 C       5      r5     0.1358
   3843 O            2.7675    -2.4944     5.3241 O       5      r5    -0.4822
   3844 O           -2.1710    -7.2167     6.7830 O       0      r0    -0.4926
   3845 C           -1.0648    -8.2077     7.0507 C       0      r0     0.1186
   3846 C           -1.1494    -9.4928     6.9816 C       0      r0    -0.0181
   3847 C           -2.4073   -10.1803     6.5595 C       0      r0    -0.0253
   3848 C           -3.6602    -9.6416     6.1943 C       0      r0     0.0111
   3849 O            0.0634    -0.2394     8.6812 O       0      r0    -0.4612
   3850 C            0.5139     0.4366    10.6589 C       0      r0     0.1841
   3851 C            1.8200    -0.1148    10.9039 C       0      r0    -0.0189
   3852 C            2.1952    -0.6851     9.6804 C       0      r0     0.0049
   3853 C            1.1224    -0.8170     8.7106 C       0      r0     0.1988
   3854 C           -1.3155    -5.6992    10.8610 C       3      r3     0.0892
   3855 C           -1.8839    -6.3017    12.1073 C       3      r3     0.0016
   3856 C            0.1686    -6.1935    12.7466 C       0      r0     0.0184
   3857 C            0.5505    -4.7846    12.4818 C       0      r0     0.0822
   3858 O           -0.4264    -4.1939    11.2021 O       0      r0    -0.5207
   3859 C            1.4264    -4.0756    12.9242 C       0      r0    -0.0231
   3860 C            3.2941    -0.9273     3.4601 C       0      r0    -0.0355
   3861 H           -1.0560    -1.8538     8.2795 H       0      r0     0.1194
   3862 H           -2.6880    -3.5967     8.6170 H       0      r0     0.0824
   3863 H            0.7634    -3.8588     5.9779 H       0      r0     0.0796
   3864 H           -0.5829    -5.6457     6.3466 H       0      r0     0.1511
   3865 H            3.9639    -5.5307     6.6650 H       0      r0     0.1188
   3866 H            2.4671    -2.0739     7.5415 H       0      r0     0.0909
   3867 H            1.1444    -1.5478     6.6488 H       0      r0     0.0874
   3868 H           -2.6856    -6.2285     9.2445 H       0      r0     0.0695
   3869 H           -1.1619    -7.1051     9.1513 H       0      r0     0.0729
   3870 H            0.9896    -8.6963     7.4579 H       0      r0     0.1151
   3871 H            5.6456    -2.2603     3.3905 H       0      r0     0.0451
   3872 H            5.7441    -4.3702     5.1613 H       0      r0     0.0917
   3873 H           -0.2248   -10.0845     7.2810 H       0      r0     0.0994
   3874 H           -2.3441   -11.2518     6.3918 H       0      r0     0.1019
   3875 H            2.4535    -0.0450    11.7949 H       0      r0     0.0413
   3876 H            3.1663    -1.1032     9.6334 H       0      r0     0.0589
   3877 H           -2.3096    -5.9533    13.0043 H       0      r0     0.0647
   3878 H            0.5570   -12.9981    15.2546 H       0      r0     0.3490
   3879 H            2.1564    -4.3506    13.7307 H       0      r0     0.0456
   3880 H            1.5388    -3.0782    12.5832 H       0      r0     0.0943
   3881 H            3.9503    -0.5356     2.7452 H       0      r0     0.0483
   3882 H            2.2849    -0.4983     3.5865 H       0      r0     0.0661
   3883 C           -0.5751   -11.2145    15.0555 C       6      r6     0.0800
   3884 C           -2.0638   -11.0801    15.0367 C       6      r6    -0.0300
   3885 C           -2.7344   -12.3312    15.1763 C       6      r6    -0.0157
   3886 C           -2.1240   -13.2183    14.3619 C       6      r6     0.0034
   3887 C            0.0439   -13.6886    12.9003 C       5      r5     0.1500
   3888 O            1.2446   -13.1635    13.3800 O       5      r5    -0.5015
   3889 C            1.1203   -11.7803    13.2583 C       5      r5     0.1350
   3890 C           -0.3265   -11.4611    13.6107 C       5      r5     0.0034
   3891 C           -1.1463   -12.7648    13.1982 C       5      r5    -0.0068
   3892 C            2.0297   -10.8657    12.9405 C       0      r0    -0.0140
   3893 C            0.0120    -9.8930    15.5915 C       0      r0    -0.0006
   3894 C           -2.5981   -14.6887    14.3619 C       0      r0    -0.0206
   3895 C            0.0258   -14.7610    12.0776 C       0      r0     0.0071
   3896 O            0.1660   -12.4617    16.0142 O       0      r0    -0.5599
   3897 C            1.0025    -7.4129    12.7682 C       5      r5     0.1302
   3898 C            2.3959    -7.3752    12.3943 C       5      r5    -0.0316
   3899 C            2.8996    -8.6911    12.5012 C       5      r5    -0.0339
   3900 C            1.8172    -9.4409    12.8138 C       5      r5     0.0967
   3901 O            0.4997    -8.7284    13.0507 O       5      r5    -0.4915
   3902 O           -2.4471   -14.6621    11.4386 O       5      r5    -0.5021
   3903 C           -1.1478   -15.1493    11.3406 C       5      r5     0.1151
   3904 C           -0.9620   -16.2722    10.5302 C       5      r5    -0.0007
   3905 C           -2.1966   -16.7020     9.9408 C       5      r5    -0.0139
   3906 C           -3.1054   -15.7894    10.4949 C       5      r5     0.0900
   3907 O            1.7926    -9.3012    17.0165 O       0      r0    -0.4973
   3908 C            4.0193   -11.6980    17.2173 C       0      r0     0.1507
   3909 C            2.8898   -11.9674    16.4892 C       0      r0    -0.0092
   3910 C            1.4213   -11.6268    16.8107 C       0      r0     0.0993
   3911 C            1.1236   -10.1628    16.6109 C       0      r0     0.1992
   3912 C           -1.3921   -15.6640    14.7214 C       5      r5     0.1571
   3913 C           -1.2773   -16.8107    13.9665 C       5      r5    -0.0114
   3914 C           -0.1313   -17.4321    14.4384 C       5      r5    -0.0202
   3915 C            0.4625   -16.5341    15.4357 C       5      r5     0.1133
   3916 O           -0.5376   -15.3648    15.7293 O       5      r5    -0.4436
   3917 C            1.5514   -16.7034    16.0130 C       0      r0    -0.0301
   3918 C           -0.7147    -6.7645    11.7323 C       3      r3     0.0347
   3919 H           -2.5649   -10.1892    15.2311 H       0      r0     0.0528
   3920 H           -3.6427   -12.5345    15.7743 H       0      r0     0.0868
   3921 H           -0.6977   -10.6169    13.1095 H       0      r0     0.0772
   3922 H           -1.7819   -12.7890    12.2770 H       0      r0     0.0762
   3923 H            3.0604   -11.2209    12.8750 H       0      r0     0.0520
   3924 H            0.3657    -9.2102    14.8181 H       0      r0     0.1217
   3925 H           -0.6942    -9.1490    16.0574 H       0      r0     0.0512
   3926 H           -3.4088   -14.8882    15.0511 H       0      r0     0.0508
   3927 H           -2.9403   -15.0341    13.3904 H       0      r0     0.0926
   3928 H            1.0082   -15.1486    11.9192 H       0      r0     0.0838
   3929 H            2.9217    -6.5880    11.9378 H       0      r0     0.0356
   3930 H            3.8933    -9.0812    12.3826 H       0      r0     0.0462
   3931 H           -0.0492   -16.8459    10.4001 H       0      r0     0.1387
   3932 H           -2.4095   -17.5101     9.2562 H       0      r0     0.1074
   3933 H            3.2111   -12.5509    15.6169 H       0      r0     0.0579
   3934 H            1.1483   -11.9312    17.7908 H       0      r0     0.0923
   3935 H           -1.9074   -17.0684    13.1711 H       0      r0     0.0587
   3936 H            0.3218   -18.2761    13.9541 H       0      r0     0.0535
   3937 H            2.0838   -17.5791    15.8978 H       0      r0     0.0303
   3938 H            1.9570   -16.0307    16.7636 H       0      r0     0.0729
   3939 H            1.5842    -4.6202     9.2027 H       0      r0     0.3028
   3940 H            0.2783    -3.9762    10.3212 H       0      r0     0.3492
   3941 C          -12.0783     1.5447    14.1522 C       7      r7     0.1769
   3942 C          -12.5783     0.4571    14.8501 C       7      r7     0.0001
   3943 C          -13.3645    -0.6884    14.4302 C       7      r7    -0.0285
   3944 C          -13.5537    -1.0599    13.1431 C       7      r7     0.1620
   3945 C          -14.5089    -2.2381    13.0406 C       0      r0    -0.0033
   3946 O          -13.0259    -0.6595    12.0372 O       7      r7    -0.4702
   3947 O          -12.2797     1.9120    12.9504 O       7      r7    -0.4818
   3948 C          -13.8484    -3.5883    12.8358 C       5      r5     0.1324
   3949 C          -12.8291    -3.9257    13.6909 C       5      r5    -0.0357
   3950 C          -12.4493    -5.2174    13.2787 C       5      r5    -0.0100
   3951 C          -13.2361    -5.5864    12.1434 C       5      r5     0.1164
   3952 O          -14.3469    -4.4978    11.9090 O       5      r5    -0.4535
   3953 C          -13.0845    -6.6859    11.4246 C       0      r0     0.0030
   3954 C          -11.1188     2.4116    14.9319 C       0      r0    -0.0014
   3955 C          -12.0288     1.9177   -18.0179 C       0      r0     0.2028
   3956 C          -12.3737     3.0284    18.6027 C       0      r0    -0.0175
   3957 C          -12.0936     3.1405    17.2026 C       0      r0    -0.0140
   3958 C          -11.2943     2.2074    16.5127 C       0      r0     0.1598
   3959 O          -10.8571     1.2135    16.9804 O       0      r0    -0.4742
   3960 H          -12.2754     0.3278    15.8437 H       0      r0     0.0953
   3961 H          -13.8394    -1.2963    15.1729 H       0      r0     0.0245
   3962 H          -15.2737    -2.2015    13.8242 H       0      r0     0.0292
   3963 H          -15.2228    -2.0112    12.2476 H       0      r0     0.1110
   3964 H          -12.4062    -3.3611    14.5114 H       0      r0     0.0392
   3965 H          -11.5930    -5.8265    13.6606 H       0      r0     0.1073
   3966 H          -12.3135    -7.4136    11.5403 H       0      r0     0.1125
   3967 H          -13.7625    -6.9119    10.6220 H       0      r0     0.0738
   3968 H          -10.0744     2.1573    14.8465 H       0      r0     0.0971
   3969 H          -11.0766     3.4571    14.6316 H       0      r0     0.0423
   3970 H          -12.8075     3.8329   -18.2571 H       0      r0     0.0425
   3971 H          -12.4937     3.9513    16.6126 H       0      r0     0.0642
   3972 C          -13.8550     2.8345    -3.0865 C       0      r0     0.1849
   3973 C          -13.5620     2.7782    -4.4472 C       0      r0     0.0049
   3974 C          -12.5307     3.3901    -5.1431 C       0      r0    -0.0162
   3975 C          -11.4492     4.1777    -4.6367 C       0      r0     0.1806
   3976 C          -10.7616     5.0216    -5.8455 C       0      r0     0.0088
   3977 O          -10.9316     4.3090    -3.5944 O       0      r0    -0.4968
   3978 O          -14.5150     1.9615    -2.4524 O       0      r0    -0.4736
   3979 C          -10.0930     4.1498    -6.9191 C       5      r5     0.1287
   3980 C           -9.8489     2.8552    -6.5865 C       5      r5    -0.0387
   3981 C           -9.2299     2.2751    -7.6802 C       5      r5    -0.0485
   3982 C           -9.1432     3.2998    -8.7141 C       5      r5     0.0887
   3983 O           -9.7112     4.6676    -8.1491 O       5      r5    -0.4793
   3984 C           -8.5885     3.1820    -9.8559 C       0      r0    -0.0413
   3985 C          -13.4171     4.1113    -2.2814 C       0      r0     0.0277
   3986 C          -15.2636     3.5222    -0.1166 C       0      r0    -0.0069
   3987 C          -16.1751     4.1414    -1.0547 C       0      r0    -0.0418
   3988 C          -15.8718     5.0093    -2.0781 C       0      r0     0.0164
   3989 C          -14.5412     5.1550    -2.5879 C       0      r0     0.1929
   3990 O          -14.2227     6.0924    -3.2414 O       0      r0    -0.4852
   3991 H          -14.2014     2.0534    -4.9636 H       0      r0     0.0921
   3992 H          -12.6198     3.3848    -6.2101 H       0      r0     0.0749
   3993 H          -11.6064     5.4927    -6.2631 H       0      r0     0.1282
   3994 H          -10.0193     5.7234    -5.4664 H       0      r0     0.0810
   3995 H          -10.0097     2.3488    -5.6359 H       0      r0     0.0538
   3996 H           -8.8237     1.2846    -7.7603 H       0      r0     0.0355
   3997 H           -8.2184     2.2215   -10.1947 H       0      r0     0.0416
   3998 H           -8.5733     4.0352   -10.5815 H       0      r0     0.0644
   3999 H          -13.4696     3.7244    -1.2636 H       0      r0     0.1059
   4000 H          -12.3268     4.4074    -2.2710 H       0      r0     0.1249
   4001 H          -17.2136     3.8314    -0.7998 H       0      r0     0.0564
   4002 H          -16.6898     5.2586    -2.6628 H       0      r0     0.1376
   4003 C          -12.2354     7.0800    15.9307 C       5      r5     0.1230
   4004 O          -11.0684     7.9063    15.4992 O       5      r5    -0.4717
   4005 C          -11.0281     8.7695    16.6417 C       5      r5     0.1130
   4006 C          -11.9695     8.3873    17.6560 C       5      r5    -0.0309
   4007 C          -12.6913     7.2400    17.2356 C       5      r5    -0.0156
   4008 C          -12.8513     6.1980    15.0075 C       0      r0     0.0029
   4009 C          -10.1352    10.7550    17.8698 C       5      r5     0.1181
   4010 O           -9.0319    11.6374    18.0623 O       5      r5    -0.4654
   4011 C           -9.6553    12.3895   -18.1089 C       5      r5     0.1770
   4012 C          -11.0153    11.8821   -17.8506 C       5      r5    -0.0054
   4013 C          -11.3287    10.9298    18.6091 C       5      r5    -0.0209
   4014 C          -10.0430     9.7335    16.8805 C       0      r0     0.0038
   4015 C          -13.9443     5.3479    15.3906 C       5      r5     0.1407
   4016 C          -14.1300     4.6604    14.1947 C       5      r5    -0.0252
   4017 C          -15.1880     3.8117    14.5795 C       5      r5    -0.0337
   4018 C          -15.6371     4.1646    15.9367 C       5      r5     0.1025
   4019 O          -14.6232     5.2040    16.5562 O       5      r5    -0.4600
   4020 C          -16.5948     3.6500    16.4850 C       0      r0    -0.0406
   4021 H          -12.1001     8.8051    18.6214 H       0      r0     0.0614
   4022 H          -13.4817     6.7391    17.7545 H       0      r0     0.0932
   4023 H          -12.4109     6.1913    14.0146 H       0      r0     0.0809
   4024 H          -11.6379    12.3246   -17.0642 H       0      r0     0.0648
   4025 H          -12.2822    10.4479    18.5065 H       0      r0     0.0662
   4026 H           -9.3287     9.6383    16.0841 H       0      r0     0.0902
   4027 H          -13.6042     4.6766    13.2145 H       0      r0     0.0577
   4028 H          -15.6184     3.1502    13.8559 H       0      r0     0.0369
   4029 H          -17.0675     2.8177    15.9846 H       0      r0     0.0292
   4030 H          -17.0176     3.9560    17.4059 H       0      r0     0.0572
   4031 C          -16.9319    14.8235   -16.5534 C       5      r5     0.1463
   4032 O          -16.6511    16.1879   -16.7133 O       5      r5    -0.4586
   4033 C          -15.2787    16.0172   -17.3567 C       5      r5     0.1090
   4034 C          -14.8748    14.7041   -17.5800 C       5      r5    -0.0197
   4035 C          -15.9049    13.9570   -16.9916 C       5      r5     0.0133
   4036 C          -18.1275    14.2954   -16.0003 C       0      r0     0.0244
   4037 C          -13.1699    16.9943   -18.4065 C       0      r0     0.1342
   4038 O          -12.7745    17.6685    17.8837 O       0      r0    -0.5774
   4039 C          -10.3348    16.7876    18.6564 C       0      r0     0.1414
   4040 C          -11.0394    15.9443   -17.9388 C       0      r0    -0.0190
   4041 C          -12.5273    16.1458   -17.6684 C       0      r0    -0.0315
   4042 C          -14.5159    17.1063   -17.7462 C       0      r0     0.0050
   4043 C          -18.5598    12.9747   -16.0070 C       5      r5     0.1293
   4044 C           17.5824    12.5470   -15.2890 C       5      r5     0.0024
   4045 C           17.4360    11.1353   -15.2912 C       5      r5    -0.0206
   4046 C           18.5119    10.8115   -16.1793 C       5      r5     0.1114
   4047 O          -17.8708    11.9215   -16.7185 O       5      r5    -0.4798
   4048 C           18.4871     9.4931   -16.3019 C       0      r0    -0.0543
   4049 H          -14.0216    14.3318   -18.0856 H       0      r0     0.0640
   4050 H          -15.9771    12.9063   -17.0287 H       0      r0     0.1332
   4051 H           18.4332    14.9319   -15.4913 H       0      r0     0.0883
   4052 H          -10.5657    15.2419   -17.2496 H       0      r0     0.0823
   4053 H          -13.0569    15.6877   -16.8114 H       0      r0     0.0428
   4054 H          -14.9385    18.0532   -17.6026 H       0      r0     0.0752
   4055 H           16.9491    13.2145   -14.7326 H       0      r0     0.0770
   4056 H           16.7786    10.5003   -14.7159 H       0      r0     0.0578
   4057 H           17.7163     8.8833   -15.8178 H       0      r0     0.0410
   4058 H          -18.0636     9.0214   -16.9581 H       0      r0     0.0474
   4059 C          -10.6004     5.9643     7.3347 C       5      r5     0.1030
   4060 O          -12.1210     6.0581     6.7035 O       5      r5    -0.4869
   4061 C          -11.8861     7.1817     5.9182 C       5      r5     0.1778
   4062 C          -10.5095     7.6936     5.9643 C       5      r5    -0.0061
   4063 C           -9.7287     7.0408     6.8750 C       5      r5    -0.0187
   4064 C          -10.1457     4.9257     8.0293 C       0      r0     0.0062
   4065 C          -12.8705     7.7571     5.2560 C       0      r0     0.2111
   4066 H          -10.1397     8.5484     5.3782 H       0      r0     0.1107
   4067 H           -8.6863     7.1855     7.0597 H       0      r0     0.0563
   4068 H           -9.6013     4.2074     8.5748 H       0      r0     0.1171
   4069 H          -12.7297     8.6470     4.6168 H       0      r0     0.1548
   4070 C           16.0677     9.7443     4.4329 C       5      r5     0.1031
   4071 O           16.3811     9.9987     2.9401 O       5      r5    -0.4710
   4072 C           17.7568    10.3339     3.1153 C       5      r5     0.1229
   4073 C           18.3594    10.1893     4.3684 C       5      r5    -0.0194
   4074 C           17.3208     9.9213     5.2166 C       5      r5    -0.0333
   4075 C           14.9584     9.4883     5.0314 C       0      r0    -0.0247
   4076 C           18.6200    10.8950     2.0881 C       0      r0    -0.0158
   4077 H          -17.9124    10.3674     4.7226 H       0      r0     0.0930
   4078 H           17.4024     9.8493     6.2547 H       0      r0     0.0852
   4079 H           14.0832     9.3357     5.7133 H       0      r0     0.0678
   4080 H          -17.6021    11.1187     2.2965 H       0      r0     0.0887
   4081 C           18.6184   -16.5327    14.4561 C       5      r5     0.0551
   4082 C           17.3527   -16.9938    15.0050 C       5      r5    -0.0408
   4083 C           17.4478   -18.2559    14.7351 C       5      r5    -0.0253
   4084 C          -18.5226   -18.5699    13.9606 C       5      r5     0.1464
   4085 C          -17.7173   -18.0525    11.4940 C       5      r5     0.1519
   4086 O          -16.9038   -16.9084    11.4588 O       5      r5    -0.4803
   4087 C          -17.6939   -15.8543    12.0642 C       5      r5     0.1395
   4088 C           18.4231   -16.3764    12.8450 C       5      r5    -0.0082
   4089 C           18.4641   -17.9584    12.5297 C       5      r5     0.0188
   4090 C          -17.4493   -14.5523    11.7830 C       0      r0     0.0295
   4091 C          -18.1340   -15.3089    15.0979 C       0      r0    -0.0192
   4092 C          -18.2762    17.7646    13.8372 C       0      r0     0.0074
   4093 C          -17.6955    18.9086    10.5070 C       0      r0     0.0070
   4094 O          -17.4798   -17.8187    14.4209 O       5      r5    -0.4704
   4095 C          -18.4243   -11.1379    12.3334 C       5      r5     0.1467
   4096 C           17.8194   -11.8599    12.9742 C       5      r5    -0.0173
   4097 C           18.0685   -13.2530    12.8460 C       5      r5    -0.0303
   4098 C          -18.0480   -13.3039    12.1267 C       5      r5     0.1333
   4099 O          -17.4847   -12.0547    11.5798 O       5      r5    -0.4454
   4100 O           17.6876    17.4136    11.2511 O       5      r5    -0.5086
   4101 C          -18.5254    17.7568    10.3724 C       5      r5     0.1246
   4102 C          -18.1015    16.8106     9.4417 C       5      r5    -0.0107
   4103 C           18.3830    15.7041     9.7391 C       5      r5    -0.0262
   4104 C           17.4068    15.9366    10.8140 C       5      r5     0.0943
   4105 O          -16.9454   -14.6015    17.2210 O       5      r5    -0.4669
   4106 C          -16.4362   -15.6557    18.3756 C       5      r5     0.0915
   4107 C          -16.7813   -16.9961    18.2071 C       5      r5    -0.0414
   4108 C          -17.3595   -16.8949    16.8804 C       5      r5     0.0049
   4109 C          -17.4247   -15.5871    16.4660 C       5      r5     0.1554
   4110 C          -18.2633    16.8850    15.0780 C       5      r5     0.1445
   4111 C           18.5886    15.5551    14.9797 C       5      r5    -0.0325
   4112 C           18.4902    15.0865    16.2101 C       5      r5    -0.0441
   4113 C          -18.2483    16.1469    17.1322 C       5      r5     0.0817
   4114 O          -17.8988    17.4475    16.2423 O       5      r5    -0.4662
   4115 C          -15.8617   -15.5080   -17.8921 C       0      r0    -0.0316
   4116 C           16.5854    15.1162    11.1748 C       0      r0    -0.0451
   4117 H           16.5082   -16.5241    15.5500 H       0      r0     0.1097
   4118 H           16.7455    18.8960    15.0288 H       0      r0     0.0497
   4119 H           17.4780   -15.8610    12.5678 H       0      r0     0.0360
   4120 H           17.5748   -18.4775    12.1723 H       0      r0     0.0676
   4121 H          -16.4834   -14.6623    11.2340 H       0      r0     0.1107
   4122 H          -17.3530   -14.7560    14.5257 H       0      r0     0.0970
   4123 H           18.3736   -14.5440    15.2252 H       0      r0     0.0389
   4124 H           18.1924    17.3430    13.2065 H       0      r0     0.0818
   4125 H          -17.2893    17.6460    13.3400 H       0      r0     0.1228
   4126 H          -16.8433   -18.7755     9.9285 H       0      r0     0.0766
   4127 H           16.9532   -11.4041    13.4592 H       0      r0     0.0399
   4128 H           17.4602   -14.0852    13.2786 H       0      r0     0.0250
   4129 H          -17.2850    16.8803     8.7145 H       0      r0     0.1038
   4130 H           18.5675    14.7374     9.2686 H       0      r0     0.0375
   4131 H          -16.6974   -17.8413   -18.5657 H       0      r0     0.0432
   4132 H          -17.7482   -17.7186    16.3056 H       0      r0     0.1350
   4133 H           18.3054    15.1012    14.0395 H       0      r0     0.0362
   4134 H           18.1208    14.1206    16.4435 H       0      r0     0.0294
   4135 H          -15.5686   -16.3232   -17.2267 H       0      r0     0.0429
   4136 H          -15.5040   -14.5307   -17.5806 H       0      r0     0.1020
   4137 H           16.5830    14.2025    10.6525 H       0      r0     0.0403
   4138 H           15.7403    15.2406    11.8990 H       0      r0     0.0585
   4139 C           14.6689    13.4360    18.0484 C       5      r5     0.0599
   4140 C           15.0099    12.4052    17.0540 C       5      r5    -0.0450
   4141 C           14.2542    11.4368    17.4956 C       5      r5    -0.0291
   4142 C           13.5020    11.8218   -18.6120 C       5      r5     0.1257
   4143 C           14.3837    12.0679   -16.1886 C       5      r5     0.1389
   4144 O           14.3701    13.3917   -15.8206 O       5      r5    -0.4904
   4145 C           15.1332    14.0547   -16.8399 C       5      r5     0.1314
   4146 C           15.5334    13.2160   -18.0379 C       5      r5    -0.0202
   4147 C           14.7233    11.8579   -17.6291 C       5      r5     0.0109
   4148 C           15.4645    15.3700   -16.7377 C       0      r0     0.0171
   4149 C           14.7938    14.7986    17.3512 C       0      r0    -0.0213
   4150 C           12.4699    10.6733   -18.1532 C       0      r0    -0.0131
   4151 C           14.1347    10.9850   -15.3491 C       0      r0     0.0037
   4152 O           13.0259    13.0987    18.6926 O       5      r5    -0.4789
   4153 C           17.5304    17.6837   -18.5621 C       5      r5     0.1271
   4154 C           17.9758    16.4647    18.2248 C       5      r5     0.0175
   4155 C           17.1576    15.5079   -18.5031 C       5      r5    -0.0300
   4156 C           16.3132    16.1485   -17.5949 C       5      r5     0.1389
   4157 O           16.3937    17.4944   -17.4207 O       5      r5    -0.4587
   4158 O           14.6956     9.1262   -16.9006 O       5      r5    -0.4943
   4159 C           14.2757     9.6091   -15.7197 C       5      r5     0.1356
   4160 C           13.9209     8.6842   -14.6951 C       5      r5    -0.0249
   4161 C           13.9794     7.3339   -15.1696 C       5      r5    -0.0308
   4162 C           14.4736     7.5953   -16.4692 C       5      r5     0.0930
   4163 O           14.0639    15.1681    15.0082 O       5      r5    -0.4713
   4164 C           12.5755    15.3372    14.4457 C       5      r5     0.0815
   4165 C           11.6098    15.1559    15.5555 C       5      r5    -0.0404
   4166 C           12.3595    14.9686    16.6811 C       5      r5    -0.0011
   4167 C           13.6637    15.0306    16.2826 C       5      r5     0.1506
   4168 C           11.4271    11.1990   -17.1382 C       0      r0     0.1643
   4169 C           11.5693    12.4323   -16.7008 C       0      r0     0.0281
   4170 C           10.8157    13.0839   -15.6135 C       0      r0    -0.0125
   4171 C            9.8937    12.4195   -14.8486 C       0      r0     0.1335
   4172 O           10.4840    10.4625   -16.6331 O       0      r0    -0.4699
   4173 C           12.3261    15.5863    13.2718 C       0      r0    -0.0470
   4174 C           14.6031     6.4473   -17.0903 C       0      r0    -0.0424
   4175 H           15.6177    12.4928    16.1788 H       0      r0     0.0448
   4176 H           14.1684    10.4688    17.0975 H       0      r0     0.0472
   4177 H           16.5655    13.0442   -18.2544 H       0      r0     0.0300
   4178 H           15.2181    10.9309   -17.8164 H       0      r0     0.0802
   4179 H           15.0683    15.6356   -15.7722 H       0      r0     0.1084
   4180 H           14.9086    15.6840    18.0867 H       0      r0     0.0527
   4181 H           15.7595    15.0215    16.8909 H       0      r0     0.0543
   4182 H           11.9324    10.2193    18.3586 H       0      r0     0.0502
   4183 H           12.9866     9.8313   -17.6818 H       0      r0     0.1026
   4184 H           13.9057    11.3949   -14.3780 H       0      r0     0.1072
   4185 H          -17.3393    15.9449    17.8282 H       0      r0     0.0917
   4186 H           17.2017    14.4488    18.6823 H       0      r0     0.0241
   4187 H           13.6870     8.9854   -13.6686 H       0      r0     0.0523
   4188 H           13.7476     6.4100   -14.7074 H       0      r0     0.0939
   4189 H           10.5582    15.1694    15.5978 H       0      r0     0.0426
   4190 H           12.0021    14.8438    17.7147 H       0      r0     0.0965
   4191 H           12.3571    13.0554   -17.0934 H       0      r0     0.1543
   4192 H           10.8908    14.1428   -15.3120 H       0      r0     0.0562
   4193 H           11.3056    15.8537    12.9425 H       0      r0     0.0265
   4194 H           13.0610    15.7640    12.5047 H       0      r0     0.0649
   4195 H           14.4333     5.4903   -16.6974 H       0      r0     0.0679
   4196 H           14.9068     6.4137   -18.1098 H       0      r0     0.0844
   4197 C          -13.6622   -17.2930    14.9062 C       6      r6     0.1247
   4198 C          -14.6066   -17.9714    15.9011 C       6      r6    -0.0140
   4199 C          -15.1545    18.7817    15.5879 C       6      r6     0.0058
   4200 C          -14.6608    18.2058    14.3452 C       6      r6     0.0142
   4201 C          -13.8960   -18.9227    11.8976 C       5      r5     0.1444
   4202 O          -13.1179   -17.7678    11.7134 O       5      r5    -0.5154
   4203 C          -13.7133   -16.7459    12.4402 C       5      r5     0.1583
   4204 C          -14.5478   -17.1905    13.5848 C       5      r5     0.0346
   4205 C          -14.8031   -18.7441    13.0842 C       5      r5     0.0298
   4206 C          -13.5797   -15.3760    12.1776 C       0      r0     0.0033
   4207 C          -13.3411   -15.9315    15.5481 C       0      r0     0.0265
   4208 C          -14.1215    16.9711    14.2672 C       0      r0     0.0184
   4209 C          -14.0265    17.9740    10.9931 C       0      r0    -0.0097
   4210 O          -12.3664   -17.8067    14.5935 O       0      r0    -0.5991
   4211 C          -15.2544   -13.1225    14.4000 C       5      r5     0.1195
   4212 C          -14.4949   -12.2674    13.4767 C       5      r5    -0.0109
   4213 C          -13.8697   -13.0287    12.5304 C       5      r5    -0.0269
   4214 C          -14.1786   -14.3568    12.9290 C       5      r5     0.1137
   4215 O          -15.0598   -14.5623    14.0798 O       5      r5    -0.5051
   4216 O          -15.9691    16.8631    12.1001 O       0      r0    -0.6006
   4217 C          -14.9899    16.9021    11.1085 C       0      r0     0.1232
   4218 C          -14.6047    16.0448    10.1095 C       0      r0    -0.0469
   4219 C          -15.1817    14.7074    10.0162 C       0      r0    -0.0546
   4220 C          -16.1351    14.2122    10.8715 C       0      r0    -0.0262
   4221 O          -12.3950   -15.1120    17.4716 O       0      r0    -0.4908
   4222 C          -11.6882   -16.8423   -18.0673 C       0      r0     0.1632
   4223 C          -11.6430   -17.9163    18.4594 C       0      r0    -0.0112
   4224 C          -12.1041   -17.5044    17.2142 C       0      r0     0.0152
   4225 C          -12.5665   -16.1087    16.8922 C       0      r0     0.1925
   4226 C          -13.9711    15.9516    15.2871 C       3      r3     0.0911
   4227 C          -15.0735    15.3520    15.9485 C       3      r3    -0.0156
   4228 C          -13.6507    13.7991    15.7316 C       5      r5     0.0094
   4229 C          -12.4097    14.5231    16.3143 C       5      r5     0.1167
   4230 O          -12.3500    15.9286    15.9930 O       5      r5    -0.5142
   4231 C          -11.5623    13.8961    16.9512 C       0      r0    -0.0357
   4232 C          -16.0091   -12.5153    15.2911 C       0      r0    -0.0298
   4233 H          -14.9835   -17.4388    16.8094 H       0      r0     0.0517
   4234 H          -15.7085    18.0979    16.2455 H       0      r0     0.1106
   4235 H          -15.4626   -16.6139    13.8409 H       0      r0     0.1389
   4236 H          -15.8107   -18.9081    12.6507 H       0      r0     0.1267
   4237 H          -13.0162   -15.1469    11.2801 H       0      r0     0.0712
   4238 H          -12.7570   -15.2264    14.9030 H       0      r0     0.0761
   4239 H          -14.2682   -15.2776    15.6885 H       0      r0     0.1187
   4240 H          -16.4862    16.0748    11.9452 H       0      r0     0.2722
   4241 H          -13.8342    16.5277    13.3214 H       0      r0     0.0806
   4242 H          -13.2896    17.9748    10.1990 H       0      r0     0.0473
   4243 H          -14.4277   -11.1693    13.5712 H       0      r0     0.0956
   4244 H          -13.2532   -12.7234    11.6608 H       0      r0     0.0517
   4245 H          -13.8988    16.3451     9.3732 H       0      r0     0.0364
   4246 H          -14.8871    13.9492     9.3417 H       0      r0     0.0470
   4247 H          -11.2272   -18.9072   -18.6988 H       0      r0     0.0920
   4248 H          -12.2417   -18.3109    16.4833 H       0      r0     0.1361
   4249 H          -15.1336    15.1772    17.0394 H       0      r0     0.0584
   4250 H          -17.0066     7.9046    16.6339 H       0      r0     0.3569
   4251 H          -11.6658    12.8057    17.0598 H       0      r0     0.0407
   4252 H          -10.7161    14.4014    17.4072 H       0      r0     0.0628
   4253 H          -16.0804   -11.4284    15.3598 H       0      r0     0.0435
   4254 H          -16.6204   -13.0776    16.0058 H       0      r0     0.1215
   4255 C          -16.9152     9.8122    17.0595 C       6      r6     0.1165
   4256 C          -17.9622    10.6677    17.7244 C       6      r6    -0.0305
   4257 C           18.0156    10.4353    17.6138 C       6      r6    -0.0588
   4258 C           17.8404     9.3824    16.7510 C       6      r6    -0.0147
   4259 C          -18.3837     7.9142    14.8263 C       5      r5     0.1505
   4260 O          -16.9886     7.6078    14.7810 O       5      r5    -0.5018
   4261 C          -16.3968     8.8965    14.7479 C       5      r5     0.1567
   4262 C          -17.1689     9.8955    15.5672 C       5      r5     0.0015
   4263 C           18.5954     9.2977    15.4189 C       5      r5     0.0042
   4264 C          -15.1844     9.2552    14.3340 C       0      r0     0.0202
   4265 C          -15.5001    10.4198    17.3328 C       0      r0    -0.0005
   4266 C           16.5565     8.5218    16.9217 C       0      r0    -0.0139
   4267 C           17.9791     7.1436    14.2672 C       0      r0     0.0111
   4268 O          -16.9068     8.4306    17.4574 O       0      r0    -0.5779
   4269 C          -13.9413    12.5300    15.0985 C       5      r5     0.1276
   4270 C          -12.7719    11.7434    14.7181 C       5      r5    -0.0192
   4271 C          -13.1762    10.4921    14.3413 C       5      r5    -0.0174
   4272 C          -14.5858    10.5495    14.3940 C       5      r5     0.1181
   4273 O          -15.1973    11.8455    14.8431 O       5      r5    -0.4807
   4274 O           16.1053     8.7979    14.1850 O       5      r5    -0.4868
   4275 C           16.5816     7.5108    14.0453 C       5      r5     0.1303
   4276 C           15.7495     6.4379    13.6404 C       5      r5    -0.0343
   4277 C           14.5561     6.8997    13.4400 C       5      r5    -0.0241
   4278 C           14.5962     8.4162    13.6741 C       5      r5     0.2120
   4279 O          -14.4582    11.7030   -18.2377 O       5      r5    -0.4853
   4280 C          -14.2799    11.1716   -16.5930 C       5      r5     0.0804
   4281 C          -14.9702     9.8765   -16.5113 C       5      r5    -0.0247
   4282 C          -15.5537     9.5936   -17.7315 C       5      r5    -0.0010
   4283 C          -15.1793    10.6603   -18.5614 C       5      r5     0.1552
   4284 C           16.9949     7.2317    17.6131 C       5      r5     0.1481
   4285 C           18.0159     7.4112    18.5053 C       5      r5     0.0039
   4286 C           18.3069     6.0697   -18.4941 C       5      r5    -0.0263
   4287 C           17.4147     5.1951    18.2690 C       5      r5     0.0930
   4288 O           16.4539     6.0204    17.2376 O       5      r5    -0.4486
   4289 C           17.4607     3.8993    18.3774 C       0      r0    -0.0287
   4290 C          -14.4593    14.5752    14.9250 C       3      r3     0.0208
   4291 H          -17.6163    11.3783    18.4414 H       0      r0     0.0877
   4292 H           17.2730    10.9356    18.2533 H       0      r0     0.0405
   4293 H          -16.9711    10.9086    15.2177 H       0      r0     0.0871
   4294 H           17.9454     9.8652    14.7092 H       0      r0     0.0884
   4295 H          -14.5220     8.5422    13.7905 H       0      r0     0.0938
   4296 H          -14.7329     9.7203    16.9287 H       0      r0     0.0674
   4297 H          -15.3809    11.3471    16.7497 H       0      r0     0.1032
   4298 H           15.8991     9.0922    17.5794 H       0      r0     0.0495
   4299 H           15.9024     8.3795    15.9961 H       0      r0     0.1297
   4300 H           18.4956     6.2563    13.9328 H       0      r0     0.0619
   4301 H          -11.7816    12.0463    14.7579 H       0      r0     0.0686
   4302 H          -12.5780     9.6300    14.1500 H       0      r0     0.0829
   4303 H           16.0530     5.3748    13.4767 H       0      r0     0.0359
   4304 H           13.6634     6.3639    13.1137 H       0      r0     0.0431
   4305 H          -15.1140     9.2314   -15.6836 H       0      r0     0.0411
   4306 H          -16.2174     8.7925   -18.0382 H       0      r0     0.1041
   4307 H           18.4376     8.3528   -18.5897 H       0      r0     0.0798
   4308 H          -18.1447     5.7600   -17.8910 H       0      r0     0.0358
   4309 H           18.0922     3.5531   -18.2006 H       0      r0     0.0470
   4310 H           16.9463     3.1725    17.8056 H       0      r0     0.0804
   4311 H          -12.2107   -17.7948    13.6423 H       0      r0     0.3192
   4312 H          -12.4353    16.9178    17.1656 H       0      r0     0.3481
   4313 C            5.5348    -7.6363     5.7408 C       0      r0     0.1924
   4314 C            4.1251    -8.0153     5.4393 C       0      r0     0.0010
   4315 C            3.5691    -9.2363     5.5556 C       0      r0    -0.0197
   4316 C            4.0154   -10.3705     6.1617 C       0      r0     0.1552
   4317 C            2.9776   -11.4331     6.0938 C       0      r0    -0.0157
   4318 O            5.1488   -10.6121     6.7891 O       0      r0    -0.4976
   4319 O            5.8880    -6.5362     5.9177 O       0      r0    -0.4933
   4320 C            2.2723   -11.5740     7.4206 C       5      r5     0.1357
   4321 C            2.4875   -12.8311     7.9985 C       5      r5    -0.0299
   4322 C            1.8002   -12.7843     9.1846 C       5      r5    -0.0346
   4323 C            1.1094   -11.4853     9.2754 C       5      r5     0.0926
   4324 O            1.4944   -10.5748     8.0059 O       5      r5    -0.4849
   4325 C            0.3543   -11.1310    10.2095 C       0      r0    -0.0360
   4326 C            6.6368    -8.7404     5.6163 C       0      r0     0.0195
   4327 C           10.0331    -5.5935     4.0969 C       0      r0     0.1168
   4328 C            9.4148    -6.8226     3.9335 C       0      r0    -0.0126
   4329 C            8.3093    -7.2461     4.8309 C       0      r0     0.0116
   4330 C            7.6990    -8.3938     4.6498 C       0      r0     0.1459
   4331 O            7.8420    -9.3248     3.6875 O       0      r0    -0.4944
   4332 H            3.5055    -7.2539     4.9503 H       0      r0     0.0804
   4333 H            2.4994    -9.1866     5.2099 H       0      r0     0.0586
   4334 H            2.1394   -11.2227     5.3961 H       0      r0     0.0490
   4335 H            3.4564   -12.3358     5.6435 H       0      r0     0.0521
   4336 H            3.1169   -13.6099     7.6460 H       0      r0     0.0769
   4337 H            1.6742   -13.5446     9.8975 H       0      r0     0.0483
   4338 H            0.1901   -11.8153    11.0321 H       0      r0     0.0438
   4339 H           -0.0782   -10.1136    10.3324 H       0      r0     0.0739
   4340 H            6.9993    -9.1891     6.5356 H       0      r0     0.0761
   4341 H            6.2107    -9.5986     5.2031 H       0      r0     0.0994
   4342 H            9.6774    -7.4854     3.1352 H       0      r0     0.0696
   4343 H            7.9961    -6.6372     5.6527 H       0      r0     0.1055
   4344 C            8.8994    15.2112    -3.7773 C       0      r0     0.1972
   4345 C            9.7906    16.1333    -4.6132 C       0      r0    -0.0150
   4346 C           11.1546    16.2086    -4.4586 C       0      r0    -0.0221
   4347 C           11.5416    15.1399    -3.7234 C       0      r0     0.1397
   4348 C           12.9535    15.4675    -3.1619 C       0      r0    -0.0012
   4349 O           11.0685    13.9470    -3.3369 O       0      r0    -0.5074
   4350 O            8.0204    14.5628    -4.1888 O       0      r0    -0.4792
   4351 C           13.0574    17.0383    -3.0252 C       5      r5     0.1460
   4352 C           12.6701    17.6568    -1.8349 C       5      r5    -0.0267
   4353 C           13.0335    18.9627    -1.9828 C       5      r5    -0.0386
   4354 C           13.6262   -18.7773    -3.3035 C       5      r5     0.0868
   4355 O           13.5713    17.6667    -4.0532 O       5      r5    -0.4793
   4356 C           14.0575   -17.6209    -3.7077 C       0      r0    -0.0463
   4357 C            9.0282    15.4845    -2.2893 C       0      r0     0.0237
   4358 C            4.8041    16.9322    -1.1742 C       0      r0     0.1904
   4359 C            5.3612    16.8757    -2.4758 C       0      r0     0.0009
   4360 C            6.7150    16.4874    -2.7142 C       0      r0     0.0006
   4361 C            7.7184    16.0800    -1.7116 C       0      r0     0.1797
   4362 O            7.7091    16.0662    -0.5359 O       0      r0    -0.4867
   4363 H            9.3433    16.9887    -5.1150 H       0      r0     0.0448
   4364 H           11.8262    16.9674    -4.9011 H       0      r0     0.0991
   4365 H           13.1990    14.8890    -2.2760 H       0      r0     0.0960
   4366 H           13.7115    15.1060    -3.8829 H       0      r0     0.0581
   4367 H           12.1900    17.2500    -0.9302 H       0      r0     0.0421
   4368 H           12.9467   -18.1321    -1.3121 H       0      r0     0.0298
   4369 H           13.9449   -16.7819    -3.0593 H       0      r0     0.0314
   4370 H           14.5220   -17.5647    -4.6301 H       0      r0     0.0739
   4371 H            9.3647    14.5796    -1.8151 H       0      r0     0.1058
   4372 H            9.8156    16.2123    -2.1054 H       0      r0     0.0480
   4373 H            4.8677    17.1075    -3.4159 H       0      r0     0.1111
   4374 H            7.2251    16.5810    -3.6290 H       0      r0     0.0777
   4375 C           10.7913    -4.0634   -17.7594 C       5      r5     0.1351
   4376 O           10.4042    -5.1837    18.6961 O       5      r5    -0.5015
   4377 C           11.7764    -5.3876    18.2057 C       5      r5     0.1118
   4378 C           12.7438    -4.5422   -18.6065 C       5      r5    -0.0190
   4379 C           12.0962    -3.6690   -17.6971 C       5      r5     0.0007
   4380 C            9.7558    -3.5877   -16.8795 C       0      r0     0.0331
   4381 C           13.1609    -6.7731    16.5509 C       5      r5     0.1307
   4382 O           13.3705    -7.9910    15.9228 O       5      r5    -0.5002
   4383 C           14.8586    -7.6219    15.3914 C       5      r5     0.0906
   4384 C           15.2790    -6.3166    15.7607 C       5      r5    -0.0330
   4385 C           14.1831    -5.7969    16.4525 C       5      r5    -0.0314
   4386 C           12.0050    -6.4299    17.3004 C       0      r0    -0.0011
   4387 C            9.9053    -2.7972   -15.7357 C       0      r0     0.1074
   4388 C            8.6242    -2.4817   -15.3670 C       0      r0    -0.0179
   4389 C            8.8768    -1.6380   -14.2083 C       0      r0    -0.0277
   4390 C           10.2924    -1.4696   -14.0927 C       0      r0     0.0938
   4391 O           11.3066    -2.2675   -15.0991 O       0      r0    -0.4615
   4392 C           10.5689    -0.7370   -13.1445 C       0      r0    -0.0340
   4393 H           13.7814    -4.5856    18.5861 H       0      r0     0.0514
   4394 H           12.4756    -2.9148   -17.0720 H       0      r0     0.0884
   4395 H            8.7691    -3.9254   -17.2482 H       0      r0     0.1309
   4396 H           16.2913    -5.8642    15.6755 H       0      r0     0.0441
   4397 H           14.1315    -4.7795    16.8114 H       0      r0     0.0258
   4398 H           11.1686    -7.1077    17.3425 H       0      r0     0.0806
   4399 H            7.6608    -2.8658   -15.7736 H       0      r0     0.0995
   4400 H            8.0671    -1.1520   -13.5932 H       0      r0     0.0833
   4401 H            9.7912    -0.3225   -12.5276 H       0      r0     0.0734
   4402 H           11.4941    -0.4690   -12.8105 H       0      r0     0.0709
   4403 C            2.5941     7.1505    18.2857 C       5      r5     0.1407
   4404 O            3.8031     7.8546    18.6312 O       5      r5    -0.5114
   4405 C            4.7081     6.6330    18.3097 C       5      r5     0.0773
   4406 C            4.1101     5.4720    17.8200 C       5      r5    -0.0452
   4407 C            2.7456     5.8027    17.8898 C       5      r5    -0.0034
   4408 C            1.3280     7.7676    18.3561 C       0      r0     0.0186
   4409 C            7.0536     5.6788    18.4212 C       0      r0     0.1173
   4410 O            8.4190     6.0353    18.3054 O       0      r0    -0.5464
   4411 C            9.0021     3.4478   -18.6181 C       0      r0     0.1180
   4412 C            7.5911     3.3099   -18.6779 C       0      r0    -0.0221
   4413 C            6.6481     4.4193    18.5366 C       0      r0    -0.0267
   4414 C            6.0588     6.7331    18.4181 C       0      r0    -0.0010
   4415 C            0.1358     7.1498    17.9118 C       5      r5     0.1376
   4416 C           -1.1198     7.7742    18.2791 C       5      r5     0.0043
   4417 C           -2.2050     7.0352    17.8019 C       5      r5    -0.0191
   4418 C           -1.5106     5.9838    17.1222 C       5      r5     0.0974
   4419 O            0.1097     6.0101    17.1587 O       5      r5    -0.4855
   4420 C           -2.4268     5.1850    16.6318 C       0      r0    -0.0296
   4421 H            4.5792     4.5632    17.4910 H       0      r0     0.0577
   4422 H            1.9333     5.1087    17.6369 H       0      r0     0.1045
   4423 H            1.2481     8.6860   -18.6287 H       0      r0     0.0729
   4424 H            7.2203     2.2303   -18.5466 H       0      r0     0.0871
   4425 H            5.6531     4.1741    18.6256 H       0      r0     0.0819
   4426 H            6.4550     7.7248    18.6984 H       0      r0     0.1148
   4427 H           -1.1303     8.6981   -18.5447 H       0      r0     0.1249
   4428 H           -3.2493     7.1841    17.9611 H       0      r0     0.0584
   4429 H           -3.4474     5.4961    16.7400 H       0      r0     0.0453
   4430 H           -2.1102     4.2577    16.1679 H       0      r0     0.1046
   4431 C            9.9642   -12.2088    -5.3594 C       5      r5     0.1429
   4432 O            8.7805   -12.0041    -6.1290 O       5      r5    -0.5040
   4433 C            9.5148   -11.7520    -7.4159 C       5      r5     0.1163
   4434 C           10.9130   -11.8296    -7.4222 C       5      r5    -0.0327
   4435 C           11.2027   -12.1541    -6.0747 C       5      r5    -0.0204
   4436 C            9.9131   -12.4646    -4.0260 C       0      r0     0.1678
   4437 C            8.8539   -11.3725    -8.6234 C       0      r0     0.0047
   4438 H           11.5542   -11.7075    -8.2634 H       0      r0     0.0473
   4439 H           12.1563   -12.1783    -5.5812 H       0      r0     0.0642
   4440 H            8.9251   -12.5462    -3.5852 H       0      r0     0.0910
   4441 H            9.2738   -11.1145    -9.5539 H       0      r0     0.0879
   4442 C            1.0445    13.0646   -18.4489 C       5      r5     0.1030
   4443 O            2.0272    12.3116    17.8745 O       5      r5    -0.4390
   4444 C            1.0183    12.0386    16.9833 C       5      r5     0.1537
   4445 C           -0.3065    12.3746    17.2084 C       5      r5    -0.0083
   4446 C           -0.3255    12.9719    18.4344 C       5      r5    -0.0318
   4447 C            1.4296    13.6908   -17.3774 C       0      r0    -0.0027
   4448 C            1.2081    11.1620    15.7561 C       0      r0    -0.0046
   4449 H           -1.1504    12.1733    16.5327 H       0      r0     0.1207
   4450 H           -1.1383    13.3153   -18.3855 H       0      r0     0.0428
   4451 H            1.4950    14.2402   -16.4462 H       0      r0     0.0688
   4452 H            2.1598    11.0918    15.1240 H       0      r0     0.0701
   4453 C            7.0707     7.8467    -5.0165 C       5      r5     0.1245
   4454 O            5.7589     8.3753    -4.3994 O       5      r5    -0.4405
   4455 C            6.2787     9.5217    -3.8253 C       5      r5     0.1500
   4456 C            7.6060     9.8789    -4.0811 C       5      r5    -0.0200
   4457 C            8.1077     8.8664    -4.8372 C       5      r5    -0.0154
   4458 C            7.3045     6.7113    -5.6815 C       0      r0    -0.0099
   4459 C            5.6288    10.4986    -2.9069 C       0      r0    -0.0260
   4460 H            8.0934    10.8001    -3.7675 H       0      r0     0.0489
   4461 H            9.1160     8.8789    -5.2318 H       0      r0     0.0446
   4462 H            7.8699     6.0119    -6.2751 H       0      r0     0.0630
   4463 H            4.5589    10.4488    -2.8320 H       0      r0     0.0688
   4464 C            8.7350     1.2653    -5.7134 C       5      r5     0.1411
   4465 O            8.9383     2.3889    -6.6429 O       5      r5    -0.4531
   4466 C            7.4331     2.8504    -6.5597 C       5      r5     0.1003
   4467 C            6.7263     1.9377    -5.6560 C       5      r5    -0.0408
   4468 C            7.4821     0.9199    -5.1232 C       5      r5    -0.0454
   4469 C            9.6032     0.4259    -5.3365 C       0      r0     0.1377
   4470 C            6.8277     3.7299    -7.3172 C       0      r0    -0.0237
   4471 H            5.7120     2.0893    -5.3815 H       0      r0     0.0373
   4472 H            7.0799     0.1668    -4.3440 H       0      r0     0.1006
   4473 H            9.3006    -0.3295    -4.6568 H       0      r0     0.0701
   4474 H            6.2099     4.3958    -7.8653 H       0      r0     0.0729
   4475 C            3.6978    11.2131    12.5586 C       5      r5     0.0586
   4476 C            2.2619    11.3502    12.8114 C       5      r5    -0.0531
   4477 C            1.8551    10.1619    12.4103 C       5      r5    -0.0139
   4478 C            3.0182     9.3775    11.6998 C       5      r5     0.1488
   4479 C            4.2860     9.7425     9.4539 C       5      r5     0.1539
   4480 O            5.5432    10.4023     9.6514 O       5      r5    -0.4645
   4481 C            5.1670    11.5944    10.3323 C       5      r5     0.1429
   4482 C            3.8169    11.5897    10.9708 C       5      r5    -0.0096
   4483 C            3.1798    10.1560    10.3782 C       5      r5     0.0162
   4484 C            5.9585    12.6794    10.3837 C       0      r0     0.0261
   4485 C            4.4966    12.0298    13.5789 C       0      r0    -0.0138
   4486 C            2.5409     7.8232    11.5831 C       0      r0    -0.0024
   4487 C            4.0748     8.8176     8.4695 C       0      r0     0.0115
   4488 O            4.1763     9.5371    12.4239 O       5      r5    -0.4751
   4489 C            5.8192    16.5033    12.4754 C       0      r0     0.0004
   4490 C            4.7868    15.6202    12.3999 C       0      r0    -0.0343
   4491 C            4.9107    14.3005    11.8037 C       0      r0    -0.0283
   4492 C            5.9572    13.9636    11.0201 C       0      r0     0.1363
   4493 O            7.0465    14.8065    10.7470 O       0      r0    -0.4797
   4494 O            1.5965     8.2057     8.6484 O       5      r5    -0.4807
   4495 C            2.8406     8.0897     8.2016 C       5      r5     0.1476
   4496 C            3.1446     7.1073     7.2527 C       5      r5    -0.0162
   4497 C            1.9915     6.3701     6.8486 C       5      r5    -0.0271
   4498 C            1.0562     6.9770     7.7472 C       5      r5     0.0958
   4499 O            5.0847    11.9754    15.9901 O       5      r5    -0.4699
   4500 C            4.6125    10.8741    17.0510 C       5      r5     0.1304
   4501 C            4.2043     9.6250    16.4788 C       5      r5    -0.0134
   4502 C            4.2333     9.9921    15.1255 C       5      r5     0.0042
   4503 C            4.6400    11.3057    14.9401 C       5      r5     0.1589
   4504 C            1.5982     7.5330    12.7723 C       5      r5     0.1412
   4505 C            0.3891     6.9544    12.3612 C       5      r5    -0.0386
   4506 C           -0.4259     6.9865    13.4139 C       5      r5    -0.0493
   4507 C            0.3324     7.6245    14.5591 C       5      r5     0.0788
   4508 O            1.8948     7.7763    14.0523 O       5      r5    -0.4540
   4509 C            4.6482    10.7372    18.3143 C       0      r0     0.0089
   4510 C           -0.0960     6.5300     7.5651 C       0      r0    -0.0304
   4511 H            1.6765    12.1583    13.2455 H       0      r0     0.0396
   4512 H            0.8847     9.7910    12.4098 H       0      r0     0.0539
   4513 H            3.2221    12.4716    10.7900 H       0      r0     0.0324
   4514 H            2.3027    10.1364     9.7601 H       0      r0     0.0720
   4515 H            6.8830    12.5365     9.8871 H       0      r0     0.1487
   4516 H            5.5003    12.3273    13.1761 H       0      r0     0.1202
   4517 H            3.9971    13.0051    13.6199 H       0      r0     0.0355
   4518 H            2.0566     7.7304    10.5970 H       0      r0     0.0819
   4519 H            3.4580     7.1847    11.5971 H       0      r0     0.1286
   4520 H            5.0342     8.6895     7.9885 H       0      r0     0.0991
   4521 H            3.9556    15.9124    12.9819 H       0      r0     0.0419
   4522 H            4.0618    13.6634    11.8722 H       0      r0     0.0235
   4523 H            4.1060     6.9354     6.7968 H       0      r0     0.0561
   4524 H            1.8938     5.5207     6.2025 H       0      r0     0.0743
   4525 H            3.9176     8.6649    16.9274 H       0      r0     0.1166
   4526 H            4.0098     9.2364    14.3468 H       0      r0     0.1386
   4527 H            0.1982     6.6349    11.3790 H       0      r0     0.0444
   4528 H           -1.4009     6.6177    13.4811 H       0      r0     0.0290
   4529 H            4.4374     9.7937   -18.6666 H       0      r0     0.1112
   4530 H            4.8322    11.5251   -18.3712 H       0      r0     0.0804
   4531 H           -0.3765     5.7803     6.8001 H       0      r0     0.0717
   4532 H           -1.0047     6.9000     8.0931 H       0      r0     0.1079
   4533 C           -5.0667     7.7354    13.4573 C       5      r5     0.0820
   4534 C           -5.1001     6.4293    12.7551 C       5      r5    -0.0264
   4535 C           -6.1404     5.8884    13.2906 C       5      r5    -0.0137
   4536 C           -6.8540     6.8976    14.2797 C       5      r5     0.1624
   4537 C           -6.3885     7.6965    16.7240 C       5      r5     0.1648
   4538 O           -5.9082     8.9264    16.7024 O       5      r5    -0.4870
   4539 C           -4.7213     8.8768    15.8788 C       5      r5     0.1248
   4540 C           -4.6504     7.6297    14.9786 C       5      r5    -0.0164
   4541 C           -5.9116     6.8943    15.5420 C       5      r5     0.0308
   4542 C           -3.8839     9.9088    15.8012 C       0      r0     0.0153
   4543 C           -4.0556     8.7118    12.7407 C       0      r0    -0.0290
   4544 C           -8.4209     6.3450    14.5963 C       0      r0     0.0057
   4545 C           -6.9488     7.0301    17.8240 C       0      r0    -0.0074
   4546 O           -6.7659     8.1127    13.8047 O       5      r5    -0.4519
   4547 C            0.4037    10.1128    15.3555 C       0      r0     0.0085
   4548 C           -0.3522     8.9652    14.9635 C       0      r0    -0.0041
   4549 C           -1.7397     8.9093    14.9565 C       0      r0    -0.0355
   4550 C           -2.5531    10.0554    15.1929 C       0      r0     0.1457
   4551 O           -2.0899    11.2302    15.2385 O       0      r0    -0.4958
   4552 O           -7.0390     4.7391    16.7279 O       5      r5    -0.4976
   4553 C           -7.2631     5.6544    17.7910 C       5      r5     0.1154
   4554 C           -7.9641     5.1664   -18.4799 C       5      r5    -0.0331
   4555 C           -8.1508     3.7753   -18.5229 C       5      r5    -0.0407
   4556 C           -7.6520     3.5475    17.5443 C       5      r5     0.0985
   4557 O           -5.3004     8.8786    10.4706 O       5      r5    -0.4556
   4558 C           -5.9020    10.2181     9.9209 C       5      r5     0.1058
   4559 C           -5.5962    11.3326    10.7864 C       5      r5     0.0019
   4560 C           -4.8870    10.8062    11.8757 C       5      r5     0.0089
   4561 C           -4.7718     9.4688    11.5799 C       5      r5     0.1606
   4562 C           -9.0727     5.7255    13.3640 C       0      r0     0.1287
   4563 C           -9.3168     4.4476    13.4492 C       0      r0    -0.0195
   4564 C           -9.9400     3.8703    12.1903 C       0      r0    -0.0014
   4565 C           -9.2398     3.7913    11.0303 C       0      r0     0.1426
   4566 O           -9.3869     6.6085    12.1635 O       0      r0    -0.4519
   4567 C           -6.5253    10.3636     8.8812 C       0      r0    -0.0348
   4568 C           -7.7880     2.3160    17.2978 C       0      r0    -0.0329
   4569 H           -4.5047     6.0077    11.9827 H       0      r0     0.0519
   4570 H           -6.5564     4.9380    13.0863 H       0      r0     0.0601
   4571 H           -3.7146     7.1089    15.0087 H       0      r0     0.0157
   4572 H           -5.6872     5.8526    15.8218 H       0      r0     0.0912
   4573 H           -4.3965    10.6468    16.4246 H       0      r0     0.0960
   4574 H           -3.4864     9.2887    13.5370 H       0      r0     0.0379
   4575 H           -3.1883     8.1997    12.2733 H       0      r0     0.0495
   4576 H           -8.3923     5.5369    15.3823 H       0      r0     0.0840
   4577 H           -8.9678     7.2185    14.9709 H       0      r0     0.1194
   4578 H           -7.2805     7.5608    18.6759 H       0      r0     0.0506
   4579 H            0.3302     7.0738    15.5110 H       0      r0     0.1413
   4580 H           -2.1295     7.9040    14.8593 H       0      r0     0.0212
   4581 H           -8.1762     5.8511   -17.6292 H       0      r0     0.0407
   4582 H           -8.5939     3.1237   -17.8243 H       0      r0     0.0483
   4583 H           -5.8135    12.3482    10.5352 H       0      r0     0.0809
   4584 H           -4.5365    11.2859    12.7507 H       0      r0     0.1037
   4585 H           -9.0156     3.8738    14.3694 H       0      r0     0.0535
   4586 H          -10.9838     3.6193    12.1906 H       0      r0     0.0865
   4587 H           -6.9147    11.3112     8.5173 H       0      r0     0.0411
   4588 H           -6.8803     9.5755     8.2639 H       0      r0     0.0610
   4589 H           -8.1970     1.5800    17.9977 H       0      r0     0.0593
   4590 H           -7.5394     1.9554    16.3056 H       0      r0     0.0809
   4591 C            7.9191     9.0149    14.4367 C       6      r6     0.1032
   4592 C            6.9619     8.2455    15.3160 C       6      r6    -0.0210
   4593 C            6.2933     7.1398    14.8761 C       6      r6    -0.0319
   4594 C            6.3333     6.9546    13.4424 C       6      r6    -0.0086
   4595 C            7.5347     7.5716    11.3044 C       5      r5     0.1760
   4596 O            8.6615     8.2361    11.3176 O       5      r5    -0.5018
   4597 C            8.2616     9.5545    11.9793 C       5      r5     0.1306
   4598 C            7.1984     9.3225    13.0284 C       5      r5     0.0172
   4599 C            6.6108     7.9625    12.4229 C       5      r5     0.0249
   4600 C            8.8333    10.7200    11.7359 C       0      r0     0.0060
   4601 C            8.2669    10.3003    15.1658 C       0      r0     0.0251
   4602 C            6.0115     5.6434    13.2685 C       0      r0    -0.0245
   4603 C            7.3714     6.4797    10.3838 C       0      r0     0.0169
   4604 O            9.1906     8.3202    14.2012 O       0      r0    -0.5939
   4605 C            7.7520    13.4562    13.9825 C       5      r5     0.1059
   4606 C            8.7932    13.9414    13.0796 C       5      r5    -0.0143
   4607 C            9.0563    13.0517    12.0500 C       5      r5    -0.0078
   4608 C            8.3511    11.9169    12.3970 C       5      r5     0.1272
   4609 O            7.3714    12.0038    13.4404 O       5      r5    -0.5115
   4610 O            4.8909     6.1306    10.7408 O       0      r0    -0.5918
   4611 C            6.1353     5.7499    10.2170 C       0      r0     0.1221
   4612 C            6.5320     4.6473     9.4966 C       0      r0    -0.0343
   4613 C            5.5807     3.6181     8.9645 C       0      r0    -0.0379
   4614 C            4.2043     3.7355     8.9561 C       0      r0    -0.0220
   4615 O            8.3458    11.3472    17.1639 O       0      r0    -0.4803
   4616 C            9.3756     9.6219   -17.7624 C       0      r0     0.2283
   4617 C            9.8220     8.9608    18.3377 C       0      r0     0.0075
   4618 C            9.2165     9.1026    16.9715 C       0      r0     0.0022
   4619 C            8.6143    10.1618    16.5772 C       0      r0     0.1452
   4620 C            6.1237     4.6088    14.3186 C       3      r3    -0.0332
   4621 C            6.7986     4.3225    15.4448 C       3      r3    -0.0273
   4622 C            7.1911     2.2325    15.0530 C       0      r0     0.0216
   4623 C            8.7243     2.2716    15.2804 C       3      r3     0.1686
   4624 O            9.6794     3.0763    15.2417 O       3      r3    -0.4640
   4625 C            9.5267     1.3008    15.7332 C       3      r3     0.0296
   4626 C            7.2974    13.9964    14.9689 C       0      r0    -0.0165
   4627 H            6.8949     8.5321    16.3170 H       0      r0     0.0589
   4628 H            5.6626     6.4944    15.5249 H       0      r0     0.0578
   4629 H            6.5159    10.1487    13.1041 H       0      r0     0.1172
   4630 H            5.6448     8.1303    11.8874 H       0      r0     0.1441
   4631 H            9.6228    10.7861    11.0243 H       0      r0     0.0702
   4632 H            8.9328    10.9903    14.6276 H       0      r0     0.0918
   4633 H            7.2835    10.8434    15.1086 H       0      r0     0.1363
   4634 H            4.3108     5.4240    10.3604 H       0      r0     0.2547
   4635 H            5.8584     5.1949    12.3186 H       0      r0     0.0989
   4636 H            8.1641     6.2532     9.6535 H       0      r0     0.0697
   4637 H            9.2628    14.8530    13.1883 H       0      r0     0.0349
   4638 H            9.7450    13.2503    11.2127 H       0      r0     0.0492
   4639 H            7.5450     4.4751     9.3595 H       0      r0     0.0759
   4640 H            5.9573     2.6686     8.5876 H       0      r0     0.0843
   4641 H           10.5727     8.2465    18.6419 H       0      r0     0.0716
   4642 H            9.4777     8.4083    16.1184 H       0      r0     0.1239
   4643 H            7.6084     4.6809    16.0301 H       0      r0     0.1021
   4644 H            0.9220    -0.4421    16.2574 H       0      r0     0.3166
   4645 H            9.0556     0.5072    16.3209 H       0      r0     0.0774
   4646 H           10.6200     1.3331    15.8060 H       0      r0     0.0911
   4647 H            7.6208    14.9530    15.2800 H       0      r0     0.0455
   4648 H            6.4335    13.6261    15.5921 H       0      r0     0.1210
   4649 C            2.1128     1.1739    16.1057 C       6      r6     0.1041
   4650 C            1.6425     2.5707    15.7115 C       6      r6    -0.0281
   4651 C            0.6356     2.8804    14.9132 C       6      r6    -0.0438
   4652 C            0.0626     1.6518    14.5099 C       6      r6    -0.0279
   4653 C            0.4585    -0.7236    13.9520 C       5      r5     0.1475
   4654 O            1.2730    -1.5673    14.5829 O       5      r5    -0.5087
   4655 C            2.5417    -0.8927    14.6423 C       5      r5     0.1286
   4656 C            2.3347     0.5905    14.6848 C       5      r5     0.0073
   4657 C            0.9719     0.6584    13.9239 C       5      r5    -0.0079
   4658 C            3.8176    -1.3699    14.5744 C       0      r0    -0.0103
   4659 C            3.4531     1.2764    16.7446 C       0      r0     0.0141
   4660 C           -1.4823     1.5042    14.3288 C       0      r0    -0.0295
   4661 C           -0.7272    -1.1102    13.2712 C       0      r0     0.0104
   4662 O            1.1054     0.3121    16.8458 O       0      r0    -0.6216
   4663 C            6.4015     1.0704    14.8501 C       5      r5     0.1369
   4664 C            7.1204    -0.1622    14.6313 C       5      r5    -0.0055
   4665 C            6.2232    -1.1938    14.4375 C       5      r5    -0.0187
   4666 C            4.9863    -0.5801    14.5593 C       5      r5     0.1080
   4667 O            4.9190     0.8995    14.7867 O       5      r5    -0.5062
   4668 O           -0.7931     1.0121    11.5884 O       5      r5    -0.4797
   4669 C           -1.3702    -0.4194    12.2380 C       5      r5     0.0950
   4670 C           -2.5403    -0.9542    11.7952 C       5      r5     0.0202
   4671 C           -3.0655    -0.0110    10.8545 C       5      r5     0.0244
   4672 C           -2.1189     1.0346    10.7123 C       5      r5     0.1466
   4673 O            4.4426     2.3121    18.5978 O       0      r0    -0.4794
   4674 C            3.0661     2.4314   -16.3425 C       0      r0     0.0115
   4675 C            1.9235     2.1144   -17.1530 C       0      r0    -0.0326
   4676 C            2.1318     1.7557   -18.4841 C       0      r0    -0.0086
   4677 C            3.4344     1.8619    18.2051 C       0      r0     0.1754
   4678 C           -2.2662     1.8894    15.6542 C       5      r5     0.1318
   4679 C           -1.5847     1.5012    16.7973 C       5      r5    -0.0224
   4680 C           -2.3667     1.9032    17.8289 C       5      r5    -0.0202
   4681 C           -3.5221     2.6199    17.2497 C       5      r5     0.0838
   4682 O           -3.3464     2.6218    15.6313 O       5      r5    -0.4821
   4683 C           -4.4292     3.1745    17.8451 C       0      r0    -0.0130
   4684 C            6.1522     3.2106    14.8130 C       3      r3     0.0092
   4685 H            2.2401     3.3647    16.2091 H       0      r0     0.0518
   4686 H            0.2415     3.8894    14.7467 H       0      r0     0.0652
   4687 H            3.1353     1.1000    14.1688 H       0      r0     0.0988
   4688 H            1.1276     1.0079    12.9150 H       0      r0     0.0724
   4689 H            3.8013    -2.4498    14.5823 H       0      r0     0.0645
   4690 H            4.0150     0.3471    16.6587 H       0      r0     0.0973
   4691 H            4.2650     1.9281    16.3444 H       0      r0     0.1231
   4692 H           -1.6828     2.1379    13.4437 H       0      r0     0.0882
   4693 H           -1.8258     0.5631    14.0701 H       0      r0     0.0588
   4694 H           -1.1488    -2.0683    13.5027 H       0      r0     0.0905
   4695 H            8.1915    -0.2053    14.4835 H       0      r0     0.0595
   4696 H            6.4803    -2.2168    14.2673 H       0      r0     0.0607
   4697 H           -3.0203    -1.8809    12.1642 H       0      r0     0.1487
   4698 H           -4.0044    -0.0689    10.3251 H       0      r0     0.1579
   4699 H            0.9450     1.8873   -16.7431 H       0      r0     0.0603
   4700 H            1.3100     1.4968    18.2400 H       0      r0     0.1168
   4701 H           -0.6139     0.9395    16.8497 H       0      r0     0.1135
   4702 H           -2.2270     1.6782   -18.4669 H       0      r0     0.1023
   4703 H           -4.5159     3.2431   -18.4161 H       0      r0     0.1178
   4704 H           -5.1843     3.7064    17.3415 H       0      r0     0.1054
   4705 H            9.3467     8.4690    13.2937 H       0      r0     0.3213
   4706 H            8.9112     5.1781    18.4826 H       0      r0     0.2748
   4707 B           18.6413   -18.9675    18.7012 B       8     BOX     0.0000
   4708 B          -18.6413   -18.9675    18.7012 B       8     BOX     0.0000
   4709 B          -18.6413    18.9675    18.7012 B       8     BOX     0.0000
   4710 B           18.6413    18.9675    18.7012 B       8     BOX     0.0000
   4711 B           18.6413   -18.9675   -18.7012 B       8     BOX     0.0000
   4712 B          -18.6413   -18.9675   -18.7012 B       8     BOX     0.0000
   4713 B          -18.6413    18.9675   -18.7012 B       8     BOX     0.0000
   4714 B           18.6413    18.9675   -18.7012 B       8     BOX     0.0000
@<TRIPOS>BOND
     1      1      2      1
     2      1      7      1
     3      1     14      1
     4      2      3      1
     5      2     20      1
     6      4      5      1
     7      5      8      1
     8      5     22      1
     9      5     23      1
    10      8      9      1
    11      8     12      1
    12      9     10      1
    13      9     24      1
    14     10     11      1
    15     10     25      1
    16     11     12      1
    17     11     13      1
    18     13     26      1
    19     13     27      1
    20     14     18      1
    21     14     28      1
    22     14     29      1
    23     15    402      1
    24     16     17      1
    25     17     18      1
    26     17     31      1
    27     18     19      1
    28     19   1070      1
    29     32     33      1
    30     32     38      1
    31     33     34      1
    32     33     51      1
    33     34     35      1
    34     34     52      1
    35     35     36      1
    36     35     37      1
    37     36     39      1
    38     36     53      1
    39     36     54      1
    40     39     40      1
    41     39     43      1
    42     40     41      1
    43     40     55      1
    44     41     42      1
    45     41     56      1
    46     42     43      1
    47     42     44      1
    48     44     57      1
    49     44     58      1
    50     45     49      1
    51     45     60      1
    52     46     47      1
    53     46    421      1
    54     46   3039      1
    55     47     48      1
    56     47     61      1
    57     48     49      1
    58     48     62      1
    59     49     50      1
    60     50   3703      1
    61     63     64      1
    62     63     67      1
    63     63     68      1
    64     64     65      1
    65     65     66      1
    66     65     74      1
    67     66     67      1
    68     66     81      1
    69     67     82      1
    70     68     75      1
    71     68     83      1
    72     69     70      1
    73     69     73      1
    74     69     74      1
    75     70     71      1
    76     71     72      1
    77     71   3978      1
    78     72     73      1
    79     72     84      1
    80     73     85      1
    81     74     86      1
    82     75     76      1
    83     75     79      1
    84     76     77      1
    85     76     87      1
    86     77     78      1
    87     77     88      1
    88     78     79      1
    89     78     80      1
    90     80     89      1
    91     80     90      1
    92     91     92      1
    93     91     95      1
    94     91     96      1
    95     92     93      1
    96     93     94      1
    97     94     95      1
    98     94    109      1
    99     95    110      1
   100     96    103      1
   101     96    111      1
   102     97     98      1
   103     97    101      1
   104     97    102      1
   105     98     99      1
   106     99    100      1
   107    100    101      1
   108    100    112      1
   109    101    113      1
   110    102    114      1
   111    103    104      1
   112    103    107      1
   113    104    105      1
   114    104    115      1
   115    105    106      1
   116    105    116      1
   117    106    107      1
   118    106    108      1
   119    108    117      1
   120    108    118      1
   121    119    123      1
   122    119    124      1
   123    120    121      1
   124    120   1927      1
   125    121    122      1
   126    121    125      1
   127    122    123      1
   128    122    126      1
   129    123    127      1
   130    124    128      1
   131    125    129      1
   132    125   3443      1
   133    130    131      1
   134    130    134      1
   135    130    135      1
   136    131    132      1
   137    132    133      1
   138    132    136      1
   139    133    134      1
   140    133    137      1
   141    134    138      1
   142    135    139      1
   143    135   1926      1
   144    136    140      1
   145    136   3800      1
   146    141    145      1
   147    142    143      1
   148    142   3799      1
   149    143    144      1
   150    143    147      1
   151    144    145      1
   152    144    148      1
   153    146    150      1
   154    147    151      1
   155    152    153      1
   156    152    159      1
   157    152    162      1
   158    152    165      1
   159    153    154      1
   160    153    188      1
   161    154    155      1
   162    154    189      1
   163    155    160      1
   164    155    163      1
   165    155    165      1
   166    156    157      1
   167    156    160      1
   168    156    164      1
   169    157    158      1
   170    158    159      1
   171    158    161      1
   172    159    160      1
   173    159    190      1
   174    160    191      1
   175    161    169      1
   176    161    192      1
   177    162    180      1
   178    162    193      1
   179    162    194      1
   180    163    181      1
   181    163    195      1
   182    163    196      1
   183    164    172      1
   184    164    197      1
   185    166    167      1
   186    166   3229      1
   187    167    198      1
   188    168    169      1
   189    168    199      1
   190    169    170      1
   191    170   3955      1
   192    171    172      1
   193    171    175      1
   194    172    173      1
   195    173    174      1
   196    173    200      1
   197    174    175      1
   198    174    201      1
   199    175    187      1
   200    176    177      1
   201    176    180      1
   202    177    178      1
   203    177    186      1
   204    178    179      1
   205    178    202      1
   206    179    180      1
   207    179    203      1
   208    181    182      1
   209    181    185      1
   210    182    183      1
   211    182    204      1
   212    183    184      1
   213    183    205      1
   214    184    185      1
   215    184    225      1
   216    184    256      1
   217    186    206      1
   218    186    207      1
   219    187    208      1
   220    187    209      1
   221    210    211      1
   222    210    220      1
   223    211    246      1
   224    212    213      1
   225    212    247      1
   226    213    218      1
   227    213    221      1
   228    213    223      1
   229    214    215      1
   230    214    218      1
   231    214    222      1
   232    215    216      1
   233    216    217      1
   234    217    218      1
   235    218    249      1
   236    219    227      1
   237    220    238      1
   238    220    251      1
   239    220    252      1
   240    221    239      1
   241    221    253      1
   242    221    254      1
   243    222    230      1
   244    222    255      1
   245    224    225      1
   246    224    228      1
   247    225    226      1
   248    226    227      1
   249    226    257      1
   250    227    228      1
   251    229    230      1
   252    229    233      1
   253    230    231      1
   254    231    232      1
   255    231    258      1
   256    232    233      1
   257    232    259      1
   258    233    245      1
   259    234    235      1
   260    234    238      1
   261    235    236      1
   262    235    244      1
   263    236    237      1
   264    236    260      1
   265    237    238      1
   266    239    240      1
   267    239    243      1
   268    240    241      1
   269    240    262      1
   270    241    242      1
   271    241    263      1
   272    242   4391      1
   273    243   3503      1
   274    244    265      1
   275    245    266      1
   276    245    267      1
   277    268    269      1
   278    268    275      1
   279    268    278      1
   280    269    270      1
   281    269    304      1
   282    270    271      1
   283    270    305      1
   284    271    276      1
   285    271    279      1
   286    272    273      1
   287    272    276      1
   288    272    280      1
   289    273    274      1
   290    274    275      1
   291    274    277      1
   292    275    276      1
   293    275    306      1
   294    276    307      1
   295    277    285      1
   296    277    308      1
   297    278    296      1
   298    278    309      1
   299    278    310      1
   300    279    297      1
   301    279    312      1
   302    280    288      1
   303    280    313      1
   304    281    382      1
   305    281   3255      1
   306    282    283      1
   307    282    286      1
   308    282    303      1
   309    283    284      1
   310    283    314      1
   311    284    285      1
   312    284    315      1
   313    285    286      1
   314    287    288      1
   315    287    311      1
   316    288    289      1
   317    289    290      1
   318    289    316      1
   319    290    291      1
   320    290    317      1
   321    291   1701      1
   322    292    293      1
   323    292    296      1
   324    293    294      1
   325    294    295      1
   326    294    318      1
   327    295    296      1
   328    295    319      1
   329    297    298      1
   330    297    361      1
   331    298    320      1
   332    298    361      1
   333    299    300      1
   334    299    340      1
   335    299    361      1
   336    300    301      1
   337    300    302      1
   338    301   3176      1
   339    302    322      1
   340    302    323      1
   341    303    324      1
   342    303    325      1
   343    321    339      1
   344    326    327      1
   345    326    333      1
   346    326    336      1
   347    326    339      1
   348    327    328      1
   349    327    362      1
   350    328    329      1
   351    328    363      1
   352    329    334      1
   353    329    337      1
   354    330    331      1
   355    330    334      1
   356    330    338      1
   357    331    332      1
   358    332    333      1
   359    332    335      1
   360    333    334      1
   361    333    364      1
   362    334    365      1
   363    335    343      1
   364    335    366      1
   365    336    354      1
   366    336    367      1
   367    336    368      1
   368    337    355      1
   369    337    369      1
   370    337    370      1
   371    338    346      1
   372    338    371      1
   373    340    341      1
   374    340    344      1
   375    341    342      1
   376    341    372      1
   377    342    343      1
   378    342    373      1
   379    343    344      1
   380    345    346      1
   381    345    349      1
   382    346    347      1
   383    347    348      1
   384    347    374      1
   385    348    349      1
   386    348    375      1
   387    350    354      1
   388    351    352      1
   389    351   1746      1
   390    352    376      1
   391    353    354      1
   392    353    377      1
   393    355    356      1
   394    356    378      1
   395    357    358      1
   396    357    379      1
   397    358    359      1
   398    358    360      1
   399    360    380      1
   400    360    381      1
   401    383   3180      1
   402    384    385      1
   403    384    390      1
   404    384    397      1
   405    385    386      1
   406    385    403      1
   407    386    387      1
   408    386    404      1
   409    387    388      1
   410    387    389      1
   411    388    405      1
   412    388    406      1
   413    389    943      1
   414    391    392      1
   415    391    395      1
   416    392    393      1
   417    392    407      1
   418    393    394      1
   419    393    408      1
   420    394    395      1
   421    394    396      1
   422    396    409      1
   423    396    410      1
   424    397    401      1
   425    397    411      1
   426    397    412      1
   427    398    399      1
   428    398   1818      1
   429    399    413      1
   430    400    401      1
   431    400    414      1
   432    401    402      1
   433    415    416      1
   434    415    428      1
   435    416    417      1
   436    416    434      1
   437    417    418      1
   438    417    435      1
   439    418    419      1
   440    418    420      1
   441    419    422      1
   442    419    436      1
   443    419    437      1
   444    420   3659      1
   445    422    423      1
   446    422    426      1
   447    423    424      1
   448    423    438      1
   449    424    425      1
   450    424    439      1
   451    425    426      1
   452    425    427      1
   453    427    440      1
   454    427    441      1
   455    428    442      1
   456    428    443      1
   457    429    430      1
   458    429   2806      1
   459    430    431      1
   460    430    444      1
   461    431    432      1
   462    431    445      1
   463    432    433      1
   464    446    447      1
   465    446    450      1
   466    446    451      1
   467    447    448      1
   468    448    449      1
   469    449    450      1
   470    449    464      1
   471    450    465      1
   472    451    458      1
   473    451    466      1
   474    452    453      1
   475    452    456      1
   476    452    457      1
   477    453    454      1
   478    454    455      1
   479    454   1722      1
   480    455    456      1
   481    455    467      1
   482    456    468      1
   483    457    469      1
   484    458    459      1
   485    458    462      1
   486    459    460      1
   487    459    470      1
   488    460    461      1
   489    460    471      1
   490    461    462      1
   491    461    463      1
   492    463    472      1
   493    463    473      1
   494    474    475      1
   495    474    478      1
   496    474    479      1
   497    475    476      1
   498    476    477      1
   499    476    485      1
   500    477    478      1
   501    477    492      1
   502    478    493      1
   503    479    486      1
   504    479    494      1
   505    480    481      1
   506    480    484      1
   507    480    485      1
   508    481   1284      1
   509    482    483      1
   510    482   4437      1
   511    483    484      1
   512    483    495      1
   513    484    496      1
   514    485    497      1
   515    486    487      1
   516    486    490      1
   517    487    488      1
   518    487    498      1
   519    488    489      1
   520    488    499      1
   521    489    490      1
   522    489    491      1
   523    491    500      1
   524    491    501      1
   525    502    503      1
   526    502    506      1
   527    502    507      1
   528    503    504      1
   529    504    505      1
   530    504    508      1
   531    505    506      1
   532    505    509      1
   533    506    510      1
   534    507    511      1
   535    508    512      1
   536    513    514      1
   537    513    517      1
   538    513    518      1
   539    514    515      1
   540    515    516      1
   541    515    519      1
   542    516    517      1
   543    516    520      1
   544    517    521      1
   545    518    522      1
   546    519    523      1
   547    519   3848      1
   548    524    525      1
   549    524    528      1
   550    524    529      1
   551    525    526      1
   552    526    527      1
   553    526    530      1
   554    527    528      1
   555    527    531      1
   556    528    532      1
   557    529    533      1
   558    529   2835      1
   559    535    536      1
   560    535    539      1
   561    535    540      1
   562    536    537      1
   563    537    538      1
   564    537    541      1
   565    538    539      1
   566    538    542      1
   567    539    543      1
   568    540    544      1
   569    540   2702      1
   570    541    545      1
   571    546    547      1
   572    546    553      1
   573    546    556      1
   574    546    559      1
   575    547    548      1
   576    547    582      1
   577    548    549      1
   578    548    583      1
   579    549    554      1
   580    549    557      1
   581    549    559      1
   582    550    551      1
   583    550    554      1
   584    550    558      1
   585    551    552      1
   586    552    553      1
   587    552    555      1
   588    553    554      1
   589    553    584      1
   590    554    585      1
   591    555    563      1
   592    555    586      1
   593    556    574      1
   594    556    587      1
   595    556    588      1
   596    557    575      1
   597    557    589      1
   598    557    590      1
   599    558    591      1
   600    560    561      1
   601    560    902      1
   602    562    563      1
   603    563    564      1
   604    564   1600      1
   605    565    566      1
   606    565    569      1
   607    566    567      1
   608    567    568      1
   609    567    594      1
   610    568    569      1
   611    568    595      1
   612    569    581      1
   613    570    571      1
   614    570    574      1
   615    571    572      1
   616    571    580      1
   617    572    573      1
   618    572    596      1
   619    573    574      1
   620    573    597      1
   621    575    576      1
   622    575    579      1
   623    576    577      1
   624    576    598      1
   625    577    578      1
   626    577    599      1
   627    578    579      1
   628    578    619      1
   629    578    650      1
   630    580    600      1
   631    580    601      1
   632    581    602      1
   633    581    603      1
   634    604    605      1
   635    604    611      1
   636    604    614      1
   637    604    617      1
   638    605    606      1
   639    606    607      1
   640    607    612      1
   641    607    615      1
   642    608    609      1
   643    608    612      1
   644    608    616      1
   645    609    610      1
   646    610    611      1
   647    610    613      1
   648    611    612      1
   649    611    642      1
   650    612    643      1
   651    613    621      1
   652    613    644      1
   653    614    632      1
   654    614    645      1
   655    614    646      1
   656    615    647      1
   657    615    648      1
   658    616    624      1
   659    616    649      1
   660    618    619      1
   661    618    622      1
   662    618   2379      1
   663    619    620      1
   664    620    621      1
   665    620    651      1
   666    621    622      1
   667    623    624      1
   668    623    627      1
   669    624    625      1
   670    625    626      1
   671    625    652      1
   672    626    627      1
   673    626    653      1
   674    627    639      1
   675    628    629      1
   676    628    632      1
   677    629    630      1
   678    629    638      1
   679    630    631      1
   680    630    654      1
   681    631    632      1
   682    631    655      1
   683    633    634      1
   684    633    637      1
   685    634    635      1
   686    635    636      1
   687    635    657      1
   688    636    876      1
   689    637   3298      1
   690    638    658      1
   691    638    659      1
   692    639    660      1
   693    639    661      1
   694    662    663      1
   695    662    669      1
   696    662    672      1
   697    662    675      1
   698    663    664      1
   699    663    698      1
   700    664    665      1
   701    664    699      1
   702    665    670      1
   703    665    673      1
   704    666    667      1
   705    666    670      1
   706    666    674      1
   707    667    668      1
   708    668    669      1
   709    668    671      1
   710    669    670      1
   711    669    700      1
   712    671    679      1
   713    672    690      1
   714    672    703      1
   715    672    704      1
   716    673    691      1
   717    673    705      1
   718    673    706      1
   719    674    682      1
   720    674    707      1
   721    675    776      1
   722    676    680      1
   723    676    697      1
   724    677    678      1
   725    677    708      1
   726    678    709      1
   727    679    680      1
   728    681   3908      1
   729    682    683      1
   730    683    684      1
   731    683    710      1
   732    684    685      1
   733    684    711      1
   734    686    690      1
   735    687    688      1
   736    687   1591      1
   737    688    689      1
   738    688    712      1
   739    689    690      1
   740    689    713      1
   741    691    692      1
   742    691    755      1
   743    692    714      1
   744    692    755      1
   745    693    694      1
   746    693    734      1
   747    693    755      1
   748    694    695      1
   749    694    696      1
   750    695    777      1
   751    696    716      1
   752    696    717      1
   753    697    718      1
   754    697    719      1
   755    720    721      1
   756    720    727      1
   757    720    730      1
   758    720    733      1
   759    721    722      1
   760    721    756      1
   761    722    723      1
   762    722    757      1
   763    723    728      1
   764    723    731      1
   765    724    725      1
   766    724    728      1
   767    725    726      1
   768    726    727      1
   769    726    729      1
   770    727    728      1
   771    727    758      1
   772    729    737      1
   773    729    760      1
   774    730    748      1
   775    730    761      1
   776    730    762      1
   777    731    749      1
   778    731    763      1
   779    731    764      1
   780    732    765      1
   781    733   1522      1
   782    734    735      1
   783    734    738      1
   784    735    736      1
   785    735    766      1
   786    736    737      1
   787    736    767      1
   788    737    738      1
   789    739    740      1
   790    739    743      1
   791    740    741      1
   792    741    742      1
   793    742    743      1
   794    742    769      1
   795    744    745      1
   796    744    748      1
   797    745    746      1
   798    746    747      1
   799    746    770      1
   800    747    748      1
   801    747    771      1
   802    749    750      1
   803    749    753      1
   804    750    772      1
   805    751    752      1
   806    751    773      1
   807    752    754      1
   808    754    774      1
   809    754    775      1
   810    778    779      1
   811    778    784      1
   812    778    791      1
   813    779    780      1
   814    779    797      1
   815    780    781      1
   816    780    798      1
   817    781    782      1
   818    781    783      1
   819    782    785      1
   820    782    799      1
   821    782    800      1
   822    783   2125      1
   823    785    786      1
   824    785    789      1
   825    786    787      1
   826    786    801      1
   827    787    788      1
   828    787    802      1
   829    788    789      1
   830    788    790      1
   831    790    803      1
   832    790    804      1
   833    791    795      1
   834    791    805      1
   835    791    806      1
   836    792    793      1
   837    792    796      1
   838    793    794      1
   839    793    807      1
   840    794    795      1
   841    794    808      1
   842    795    796      1
   843    809    810      1
   844    809    815      1
   845    809    822      1
   846    810    811      1
   847    810    828      1
   848    811    812      1
   849    812    813      1
   850    813    816      1
   851    813    830      1
   852    813    831      1
   853    814   2441      1
   854    816    817      1
   855    816    820      1
   856    817    818      1
   857    818    819      1
   858    818    833      1
   859    819    820      1
   860    819    821      1
   861    821    834      1
   862    821    835      1
   863    822    826      1
   864    822    836      1
   865    822    837      1
   866    823    824      1
   867    824    825      1
   868    824    838      1
   869    825    826      1
   870    825    839      1
   871    826    827      1
   872    827   2467      1
   873    840    841      1
   874    840    844      1
   875    840    845      1
   876    841    842      1
   877    842    843      1
   878    842    851      1
   879    843    844      1
   880    843    858      1
   881    844    859      1
   882    845    852      1
   883    845    860      1
   884    846    847      1
   885    846    850      1
   886    846    851      1
   887    847   1128      1
   888    848    849      1
   889    848   1560      1
   890    849    850      1
   891    849    861      1
   892    850    862      1
   893    851    863      1
   894    852    853      1
   895    852    856      1
   896    853    854      1
   897    853    864      1
   898    854    855      1
   899    854    865      1
   900    855    856      1
   901    855    857      1
   902    857    866      1
   903    857    867      1
   904    868    869      1
   905    868    872      1
   906    868    873      1
   907    869    870      1
   908    870    871      1
   909    870    879      1
   910    871    872      1
   911    871    886      1
   912    872    887      1
   913    873    880      1
   914    874    875      1
   915    874    878      1
   916    874    879      1
   917    875    876      1
   918    876    877      1
   919    877    878      1
   920    877    889      1
   921    878    890      1
   922    879    891      1
   923    880    884      1
   924    881    892      1
   925    882    883      1
   926    883    884      1
   927    883    885      1
   928    885    894      1
   929    885    895      1
   930    896    897      1
   931    896    900      1
   932    896    901      1
   933    897   3781      1
   934    898    899      1
   935    898    902      1
   936    899    900      1
   937    899    903      1
   938    900    904      1
   939    901    905      1
   940    902    906      1
   941    907    908      1
   942    907    912      1
   943    908    909      1
   944    909    913      1
   945    910    911      1
   946    910    914      1
   947    911    915      1
   948    912    916      1
   949    913    917      1
   950    913   4220      1
   951    918    919      1
   952    918    922      1
   953    918    923      1
   954    919    920      1
   955    920    921      1
   956    920    924      1
   957    921    922      1
   958    921    925      1
   959    922    926      1
   960    923    927      1
   961    923   2361      1
   962    924    928      1
   963    924   1210      1
   964    929    930      1
   965    929    936      1
   966    929    939      1
   967    929    942      1
   968    930    931      1
   969    930    965      1
   970    931    932      1
   971    931    966      1
   972    932    937      1
   973    932    942      1
   974    933    941      1
   975    934    935      1
   976    935    936      1
   977    935    938      1
   978    936    937      1
   979    936    967      1
   980    937    968      1
   981    938    946      1
   982    938    969      1
   983    939    957      1
   984    939    970      1
   985    939    971      1
   986    940    958      1
   987    940    972      1
   988    940    973      1
   989    941    949      1
   990    941    974      1
   991    943    944      1
   992    943    947      1
   993    944    945      1
   994    944    975      1
   995    945    946      1
   996    945    976      1
   997    946    947      1
   998    948    949      1
   999    948    952      1
  1000    949    950      1
  1001    950    951      1
  1002    950    977      1
  1003    951    952      1
  1004    951    978      1
  1005    952    964      1
  1006    953    954      1
  1007    953    957      1
  1008    954    955      1
  1009    954    963      1
  1010    955    956      1
  1011    955    979      1
  1012    956    957      1
  1013    956    980      1
  1014    958    962      1
  1015    959    960      1
  1016    959    981      1
  1017    960    961      1
  1018    960    982      1
  1019    961   1002      1
  1020    963    983      1
  1021    963    984      1
  1022    964    985      1
  1023    964    986      1
  1024    987    988      1
  1025    987    994      1
  1026    987    997      1
  1027    987   1000      1
  1028    988    989      1
  1029    988   1023      1
  1030    989    990      1
  1031    989   1024      1
  1032    990    995      1
  1033    990    998      1
  1034    990   1000      1
  1035    991    992      1
  1036    991    995      1
  1037    991    999      1
  1038    992    993      1
  1039    993    994      1
  1040    993    996      1
  1041    994    995      1
  1042    994   1025      1
  1043    995   1026      1
  1044    996   1004      1
  1045    996   1027      1
  1046    997   1015      1
  1047    997   1028      1
  1048    997   1029      1
  1049    998   1016      1
  1050    998   1030      1
  1051    998   1031      1
  1052    999   1007      1
  1053    999   1032      1
  1054   1001   1002      1
  1055   1001   1005      1
  1056   1001   2084      1
  1057   1002   1003      1
  1058   1003   1004      1
  1059   1003   1034      1
  1060   1004   1005      1
  1061   1006   1007      1
  1062   1006   1742      1
  1063   1007   1008      1
  1064   1008   1009      1
  1065   1008   1035      1
  1066   1009   1010      1
  1067   1009   1036      1
  1068   1010   1022      1
  1069   1011   1012      1
  1070   1011   1015      1
  1071   1012   1013      1
  1072   1012   1021      1
  1073   1013   1014      1
  1074   1013   1037      1
  1075   1014   1015      1
  1076   1014   1038      1
  1077   1016   1017      1
  1078   1016   1020      1
  1079   1017   1018      1
  1080   1017   1039      1
  1081   1018   1019      1
  1082   1018   1040      1
  1083   1019   3572      1
  1084   1020   4469      1
  1085   1021   1041      1
  1086   1021   1042      1
  1087   1022   1043      1
  1088   1022   1044      1
  1089   1045   1046      1
  1090   1045   1052      1
  1091   1045   1055      1
  1092   1045   1058      1
  1093   1046   1047      1
  1094   1046   1081      1
  1095   1047   1048      1
  1096   1047   1082      1
  1097   1048   1053      1
  1098   1048   1056      1
  1099   1049   1050      1
  1100   1049   1053      1
  1101   1049   1057      1
  1102   1050   1051      1
  1103   1051   1052      1
  1104   1051   1054      1
  1105   1052   1053      1
  1106   1052   1083      1
  1107   1053   1084      1
  1108   1054   1062      1
  1109   1055   1073      1
  1110   1055   1086      1
  1111   1056   1074      1
  1112   1056   1089      1
  1113   1057   1065      1
  1114   1057   1090      1
  1115   1058   1159      1
  1116   1059   1063      1
  1117   1059   1080      1
  1118   1060   1091      1
  1119   1061   1092      1
  1120   1064   1065      1
  1121   1064   1088      1
  1122   1065   1066      1
  1123   1066   1067      1
  1124   1066   1093      1
  1125   1067   1068      1
  1126   1067   1094      1
  1127   1068   2478      1
  1128   1069   3693      1
  1129   1071   1072      1
  1130   1071   1095      1
  1131   1072   1073      1
  1132   1072   1096      1
  1133   1074   1075      1
  1134   1074   1138      1
  1135   1075   1097      1
  1136   1075   1138      1
  1137   1076   1077      1
  1138   1076   1117      1
  1139   1076   1138      1
  1140   1077   1078      1
  1141   1077   1079      1
  1142   1078   1160      1
  1143   1079   1099      1
  1144   1079   1100      1
  1145   1080   1102      1
  1146   1098   1116      1
  1147   1103   1104      1
  1148   1103   1110      1
  1149   1103   1113      1
  1150   1103   1116      1
  1151   1104   1105      1
  1152   1104   1139      1
  1153   1105   1106      1
  1154   1105   1140      1
  1155   1106   1111      1
  1156   1106   1114      1
  1157   1107   1108      1
  1158   1107   1111      1
  1159   1107   1115      1
  1160   1108   1109      1
  1161   1109   1110      1
  1162   1109   1112      1
  1163   1110   1111      1
  1164   1110   1141      1
  1165   1111   1142      1
  1166   1112   1120      1
  1167   1112   1143      1
  1168   1113   1131      1
  1169   1113   1144      1
  1170   1113   1145      1
  1171   1114   1132      1
  1172   1114   1147      1
  1173   1115   1123      1
  1174   1115   1148      1
  1175   1117   1118      1
  1176   1117   1121      1
  1177   1118   1119      1
  1178   1118   1149      1
  1179   1119   1120      1
  1180   1119   1150      1
  1181   1120   1121      1
  1182   1122   1123      1
  1183   1122   1146      1
  1184   1123   1124      1
  1185   1124   1125      1
  1186   1124   1151      1
  1187   1125   1126      1
  1188   1125   1152      1
  1189   1127   1131      1
  1190   1128   1129      1
  1191   1129   1130      1
  1192   1129   1153      1
  1193   1130   1131      1
  1194   1130   1154      1
  1195   1132   1133      1
  1196   1132   1136      1
  1197   1133   1155      1
  1198   1134   1135      1
  1199   1134   1156      1
  1200   1135   1137      1
  1201   1137   1157      1
  1202   1137   1158      1
  1203   1161   1162      1
  1204   1161   1167      1
  1205   1161   1174      1
  1206   1162   1163      1
  1207   1162   1180      1
  1208   1163   1164      1
  1209   1163   1181      1
  1210   1164   1165      1
  1211   1164   1166      1
  1212   1165   1168      1
  1213   1165   1183      1
  1214   1168   1172      1
  1215   1169   1170      1
  1216   1169   1184      1
  1217   1170   1185      1
  1218   1171   1172      1
  1219   1171   1173      1
  1220   1173   1186      1
  1221   1173   1187      1
  1222   1174   1178      1
  1223   1174   1188      1
  1224   1174   1189      1
  1225   1175   1176      1
  1226   1175   2748      1
  1227   1176   1177      1
  1228   1176   1190      1
  1229   1177   1178      1
  1230   1177   1191      1
  1231   1178   1179      1
  1232   1179   1285      1
  1233   1192   1193      1
  1234   1192   1198      1
  1235   1192   1205      1
  1236   1193   1194      1
  1237   1193   1211      1
  1238   1194   1195      1
  1239   1194   1212      1
  1240   1195   1196      1
  1241   1195   1197      1
  1242   1196   1199      1
  1243   1196   1213      1
  1244   1196   1214      1
  1245   1199   1200      1
  1246   1199   1203      1
  1247   1200   1201      1
  1248   1200   1215      1
  1249   1201   1202      1
  1250   1201   1216      1
  1251   1202   1203      1
  1252   1202   1204      1
  1253   1204   1217      1
  1254   1204   1218      1
  1255   1205   1209      1
  1256   1205   1220      1
  1257   1206   1207      1
  1258   1207   1208      1
  1259   1207   1221      1
  1260   1208   1209      1
  1261   1208   1222      1
  1262   1223   1224      1
  1263   1223   1227      1
  1264   1223   1228      1
  1265   1224   1225      1
  1266   1225   1226      1
  1267   1225   1234      1
  1268   1226   1227      1
  1269   1226   1241      1
  1270   1227   1242      1
  1271   1228   1235      1
  1272   1228   1243      1
  1273   1229   1230      1
  1274   1229   1233      1
  1275   1229   1234      1
  1276   1230   4358      1
  1277   1231   1232      1
  1278   1231   2883      1
  1279   1232   1244      1
  1280   1233   1245      1
  1281   1234   1246      1
  1282   1235   1236      1
  1283   1235   1239      1
  1284   1236   1237      1
  1285   1236   1247      1
  1286   1237   1238      1
  1287   1237   1248      1
  1288   1238   1239      1
  1289   1238   1240      1
  1290   1240   1249      1
  1291   1240   1250      1
  1292   1251   1252      1
  1293   1251   1255      1
  1294   1251   1256      1
  1295   1252   1253      1
  1296   1253   1254      1
  1297   1253   1262      1
  1298   1254   1255      1
  1299   1254   1269      1
  1300   1255   1270      1
  1301   1256   1263      1
  1302   1256   1271      1
  1303   1257   1258      1
  1304   1257   1261      1
  1305   1258   1554      1
  1306   1259   1260      1
  1307   1259   1723      1
  1308   1260   1261      1
  1309   1260   1272      1
  1310   1261   1273      1
  1311   1262   1274      1
  1312   1263   1264      1
  1313   1263   1267      1
  1314   1264   1265      1
  1315   1265   1266      1
  1316   1266   1267      1
  1317   1266   1268      1
  1318   1268   1277      1
  1319   1268   1278      1
  1320   1279   1280      1
  1321   1279   1283      1
  1322   1279   1284      1
  1323   1280   1281      1
  1324   1281   1282      1
  1325   1281   1285      1
  1326   1282   1283      1
  1327   1282   1286      1
  1328   1283   1287      1
  1329   1284   1288      1
  1330   1285   1289      1
  1331   1290   1291      1
  1332   1290   1294      1
  1333   1290   1295      1
  1334   1291   1292      1
  1335   1292   1293      1
  1336   1292   1296      1
  1337   1293   1294      1
  1338   1293   1297      1
  1339   1294   1298      1
  1340   1295   1299      1
  1341   1296   1300      1
  1342   1296   4614      1
  1343   1301   1302      1
  1344   1301   1305      1
  1345   1301   1306      1
  1346   1302   4327      1
  1347   1303   1304      1
  1348   1303   1307      1
  1349   1304   1305      1
  1350   1304   1308      1
  1351   1305   1309      1
  1352   1306   1310      1
  1353   1307   1311      1
  1354   1312   1313      1
  1355   1312   1316      1
  1356   1312   1317      1
  1357   1313   2252      1
  1358   1314   1315      1
  1359   1314   1318      1
  1360   1315   1316      1
  1361   1315   1319      1
  1362   1316   1320      1
  1363   1317   1321      1
  1364   1318   1322      1
  1365   1323   1324      1
  1366   1323   1330      1
  1367   1323   1333      1
  1368   1323   1336      1
  1369   1324   1325      1
  1370   1324   1359      1
  1371   1325   1326      1
  1372   1325   1360      1
  1373   1326   1331      1
  1374   1326   1334      1
  1375   1326   1336      1
  1376   1327   1328      1
  1377   1327   1331      1
  1378   1327   1335      1
  1379   1328   1329      1
  1380   1329   1330      1
  1381   1329   1332      1
  1382   1330   1331      1
  1383   1330   1361      1
  1384   1331   1362      1
  1385   1332   1340      1
  1386   1332   1363      1
  1387   1333   1351      1
  1388   1333   1364      1
  1389   1333   1365      1
  1390   1334   1352      1
  1391   1334   1366      1
  1392   1334   1367      1
  1393   1335   1343      1
  1394   1335   1368      1
  1395   1337   1338      1
  1396   1337   1341      1
  1397   1338   1339      1
  1398   1338   1369      1
  1399   1339   1340      1
  1400   1339   1370      1
  1401   1340   1341      1
  1402   1342   1343      1
  1403   1342   1346      1
  1404   1343   1344      1
  1405   1344   1345      1
  1406   1344   1371      1
  1407   1345   1346      1
  1408   1345   1372      1
  1409   1346   1358      1
  1410   1347   1348      1
  1411   1347   1351      1
  1412   1348   1349      1
  1413   1348   1357      1
  1414   1349   1350      1
  1415   1349   1373      1
  1416   1350   1351      1
  1417   1350   1374      1
  1418   1352   1353      1
  1419   1352   1356      1
  1420   1353   1354      1
  1421   1353   1375      1
  1422   1354   1355      1
  1423   1354   1376      1
  1424   1355   1356      1
  1425   1355   1396      1
  1426   1355   1427      1
  1427   1357   1377      1
  1428   1357   1378      1
  1429   1358   1379      1
  1430   1358   1380      1
  1431   1381   1382      1
  1432   1381   1388      1
  1433   1381   1391      1
  1434   1381   1394      1
  1435   1382   1383      1
  1436   1382   1417      1
  1437   1383   1384      1
  1438   1383   1418      1
  1439   1384   1389      1
  1440   1384   1392      1
  1441   1384   1394      1
  1442   1385   1386      1
  1443   1385   1389      1
  1444   1385   1393      1
  1445   1386   1387      1
  1446   1387   1388      1
  1447   1387   1390      1
  1448   1388   1389      1
  1449   1388   1419      1
  1450   1389   1420      1
  1451   1390   1398      1
  1452   1390   1421      1
  1453   1391   1409      1
  1454   1391   1422      1
  1455   1391   1423      1
  1456   1392   1410      1
  1457   1392   1424      1
  1458   1392   1425      1
  1459   1393   1401      1
  1460   1393   1426      1
  1461   1395   1396      1
  1462   1395   1399      1
  1463   1396   1397      1
  1464   1397   1398      1
  1465   1397   1428      1
  1466   1398   1399      1
  1467   1400   1401      1
  1468   1400   1404      1
  1469   1401   1402      1
  1470   1402   1403      1
  1471   1402   1429      1
  1472   1403   1404      1
  1473   1403   1430      1
  1474   1404   1416      1
  1475   1405   1406      1
  1476   1405   1409      1
  1477   1406   1407      1
  1478   1406   1415      1
  1479   1407   1408      1
  1480   1407   1431      1
  1481   1408   1409      1
  1482   1408   1432      1
  1483   1410   1411      1
  1484   1410   1414      1
  1485   1411   1412      1
  1486   1411   1433      1
  1487   1412   1413      1
  1488   1412   1434      1
  1489   1413   3261      1
  1490   1415   1435      1
  1491   1415   1436      1
  1492   1416   1437      1
  1493   1416   1438      1
  1494   1439   1440      1
  1495   1439   1446      1
  1496   1439   1449      1
  1497   1440   1441      1
  1498   1440   1475      1
  1499   1441   1442      1
  1500   1441   1476      1
  1501   1442   1447      1
  1502   1442   1450      1
  1503   1443   1444      1
  1504   1443   1447      1
  1505   1443   1451      1
  1506   1444   1445      1
  1507   1445   1446      1
  1508   1445   1448      1
  1509   1446   1447      1
  1510   1446   1477      1
  1511   1447   1478      1
  1512   1448   1456      1
  1513   1448   1479      1
  1514   1449   1467      1
  1515   1449   1480      1
  1516   1449   1481      1
  1517   1450   1468      1
  1518   1450   1483      1
  1519   1451   1459      1
  1520   1451   1484      1
  1521   1452   1553      1
  1522   1452   4171      1
  1523   1453   1454      1
  1524   1453   1457      1
  1525   1453   1474      1
  1526   1454   1455      1
  1527   1454   1485      1
  1528   1455   1456      1
  1529   1455   1486      1
  1530   1456   1457      1
  1531   1458   1459      1
  1532   1458   1482      1
  1533   1459   1460      1
  1534   1460   1461      1
  1535   1460   1487      1
  1536   1461   1462      1
  1537   1461   1488      1
  1538   1462   2872      1
  1539   1463   1467      1
  1540   1463   4616      1
  1541   1464   4615      1
  1542   1465   1466      1
  1543   1465   1489      1
  1544   1466   1467      1
  1545   1466   1490      1
  1546   1468   1469      1
  1547   1468   1532      1
  1548   1469   1491      1
  1549   1469   1532      1
  1550   1470   1471      1
  1551   1470   1511      1
  1552   1470   1532      1
  1553   1471   1473      1
  1554   1473   1493      1
  1555   1473   1494      1
  1556   1474   1495      1
  1557   1474   1496      1
  1558   1492   1510      1
  1559   1497   1498      1
  1560   1497   1504      1
  1561   1497   1507      1
  1562   1497   1510      1
  1563   1498   1499      1
  1564   1498   1533      1
  1565   1499   1500      1
  1566   1499   1534      1
  1567   1500   1505      1
  1568   1500   1508      1
  1569   1501   1502      1
  1570   1501   1505      1
  1571   1501   1509      1
  1572   1502   1503      1
  1573   1503   1504      1
  1574   1503   1506      1
  1575   1504   1505      1
  1576   1504   1535      1
  1577   1505   1536      1
  1578   1506   1514      1
  1579   1506   1537      1
  1580   1507   1525      1
  1581   1507   1538      1
  1582   1507   1539      1
  1583   1508   1526      1
  1584   1508   1540      1
  1585   1509   1517      1
  1586   1509   1542      1
  1587   1511   1512      1
  1588   1511   1515      1
  1589   1512   1513      1
  1590   1513   1514      1
  1591   1514   1515      1
  1592   1516   1517      1
  1593   1516   1541      1
  1594   1517   1518      1
  1595   1518   1519      1
  1596   1518   1545      1
  1597   1519   1520      1
  1598   1519   1546      1
  1599   1520   2499      1
  1600   1521   1525      1
  1601   1523   1524      1
  1602   1523   1547      1
  1603   1524   1525      1
  1604   1524   1548      1
  1605   1526   1527      1
  1606   1526   1530      1
  1607   1527   1528      1
  1608   1527   1549      1
  1609   1528   1529      1
  1610   1528   1550      1
  1611   1529   1530      1
  1612   1529   1531      1
  1613   1531   1551      1
  1614   1531   1552      1
  1615   1555   1556      1
  1616   1555   1561      1
  1617   1555   1568      1
  1618   1556   1557      1
  1619   1556   1574      1
  1620   1557   1558      1
  1621   1557   1575      1
  1622   1558   1559      1
  1623   1558   1560      1
  1624   1559   1562      1
  1625   1559   1576      1
  1626   1559   1577      1
  1627   1561   1679      1
  1628   1562   1563      1
  1629   1562   1566      1
  1630   1563   1564      1
  1631   1563   1578      1
  1632   1564   1565      1
  1633   1564   1579      1
  1634   1565   1566      1
  1635   1565   1567      1
  1636   1567   1580      1
  1637   1567   1581      1
  1638   1568   1572      1
  1639   1568   1582      1
  1640   1568   1583      1
  1641   1569   1570      1
  1642   1570   1571      1
  1643   1570   1584      1
  1644   1571   1572      1
  1645   1571   1585      1
  1646   1572   1573      1
  1647   1586   1587      1
  1648   1586   1592      1
  1649   1586   1599      1
  1650   1587   1588      1
  1651   1587   1605      1
  1652   1588   1589      1
  1653   1588   1606      1
  1654   1589   1590      1
  1655   1589   1591      1
  1656   1590   1593      1
  1657   1590   1607      1
  1658   1590   1608      1
  1659   1593   1594      1
  1660   1593   1597      1
  1661   1594   1595      1
  1662   1594   1609      1
  1663   1595   1596      1
  1664   1595   1610      1
  1665   1596   1597      1
  1666   1596   1598      1
  1667   1598   1611      1
  1668   1598   1612      1
  1669   1599   1603      1
  1670   1599   1613      1
  1671   1599   1614      1
  1672   1600   1601      1
  1673   1601   1602      1
  1674   1601   1615      1
  1675   1602   1603      1
  1676   1602   1616      1
  1677   1603   1604      1
  1678   1604   1712      1
  1679   1617   1618      1
  1680   1617   1621      1
  1681   1617   1622      1
  1682   1618   1619      1
  1683   1619   1620      1
  1684   1619   1628      1
  1685   1620   1621      1
  1686   1620   1635      1
  1687   1621   1636      1
  1688   1622   1629      1
  1689   1622   1637      1
  1690   1623   1624      1
  1691   1623   1627      1
  1692   1623   1628      1
  1693   1624   2646      1
  1694   1625   1626      1
  1695   1626   1627      1
  1696   1626   1638      1
  1697   1627   1639      1
  1698   1628   1640      1
  1699   1629   1630      1
  1700   1629   1633      1
  1701   1630   1631      1
  1702   1630   1641      1
  1703   1631   1632      1
  1704   1631   1642      1
  1705   1632   1633      1
  1706   1632   1634      1
  1707   1634   1643      1
  1708   1634   1644      1
  1709   1645   1646      1
  1710   1645   1649      1
  1711   1645   1650      1
  1712   1646   1647      1
  1713   1648   1663      1
  1714   1649   1664      1
  1715   1650   1657      1
  1716   1650   1665      1
  1717   1651   1652      1
  1718   1651   1655      1
  1719   1651   1656      1
  1720   1652   1653      1
  1721   1653   1654      1
  1722   1654   1655      1
  1723   1654   1666      1
  1724   1655   1667      1
  1725   1657   1658      1
  1726   1657   1661      1
  1727   1658   1659      1
  1728   1658   1669      1
  1729   1659   1660      1
  1730   1659   1670      1
  1731   1660   1661      1
  1732   1660   1662      1
  1733   1662   1671      1
  1734   1662   1672      1
  1735   1673   1674      1
  1736   1673   1677      1
  1737   1674   1675      1
  1738   1675   1676      1
  1739   1675   1679      1
  1740   1676   1677      1
  1741   1676   1680      1
  1742   1678   1682      1
  1743   1679   1683      1
  1744   1684   1685      1
  1745   1684   1688      1
  1746   1684   1689      1
  1747   1685   1686      1
  1748   1686   1687      1
  1749   1686   1690      1
  1750   1687   1688      1
  1751   1687   1691      1
  1752   1688   1692      1
  1753   1689   1693      1
  1754   1689   3086      1
  1755   1690   1694      1
  1756   1695   1696      1
  1757   1695   1699      1
  1758   1695   1700      1
  1759   1696   1697      1
  1760   1697   1698      1
  1761   1697   1701      1
  1762   1698   1699      1
  1763   1698   1702      1
  1764   1699   1703      1
  1765   1700   1704      1
  1766   1701   1705      1
  1767   1706   1707      1
  1768   1706   1710      1
  1769   1706   1711      1
  1770   1707   1708      1
  1771   1708   1709      1
  1772   1708   1712      1
  1773   1709   1710      1
  1774   1709   1713      1
  1775   1710   1714      1
  1776   1711   1715      1
  1777   1712   1716      1
  1778   1717   1718      1
  1779   1717   1721      1
  1780   1717   1722      1
  1781   1718   1719      1
  1782   1719   1720      1
  1783   1719   1723      1
  1784   1720   1721      1
  1785   1720   1724      1
  1786   1721   1725      1
  1787   1722   1726      1
  1788   1723   1727      1
  1789   1728   1729      1
  1790   1728   1738      1
  1791   1729   1730      1
  1792   1729   1764      1
  1793   1730   1765      1
  1794   1731   1736      1
  1795   1731   1739      1
  1796   1731   1741      1
  1797   1732   1733      1
  1798   1732   1736      1
  1799   1732   1740      1
  1800   1733   1734      1
  1801   1734   1735      1
  1802   1734   1737      1
  1803   1735   1736      1
  1804   1735   1766      1
  1805   1736   1767      1
  1806   1737   1745      1
  1807   1737   1768      1
  1808   1738   1756      1
  1809   1738   1770      1
  1810   1739   1757      1
  1811   1739   1771      1
  1812   1739   1772      1
  1813   1740   1748      1
  1814   1740   1773      1
  1815   1742   1743      1
  1816   1743   1774      1
  1817   1744   1745      1
  1818   1744   1775      1
  1819   1747   1748      1
  1820   1747   1751      1
  1821   1748   1749      1
  1822   1749   1750      1
  1823   1749   1776      1
  1824   1750   1751      1
  1825   1750   1777      1
  1826   1751   1763      1
  1827   1752   1753      1
  1828   1752   1756      1
  1829   1753   1754      1
  1830   1753   1762      1
  1831   1754   1755      1
  1832   1754   1778      1
  1833   1755   1756      1
  1834   1757   1758      1
  1835   1758   1780      1
  1836   1759   1760      1
  1837   1759   1781      1
  1838   1760   1761      1
  1839   1760   1801      1
  1840   1760   1832      1
  1841   1762   1782      1
  1842   1762   1783      1
  1843   1763   1784      1
  1844   1763   1785      1
  1845   1786   1787      1
  1846   1786   1793      1
  1847   1786   1796      1
  1848   1787   1788      1
  1849   1787   1822      1
  1850   1788   1789      1
  1851   1788   1823      1
  1852   1789   1794      1
  1853   1789   1797      1
  1854   1789   1799      1
  1855   1790   1791      1
  1856   1790   1794      1
  1857   1790   1798      1
  1858   1791   1792      1
  1859   1792   1793      1
  1860   1792   1795      1
  1861   1793   1794      1
  1862   1793   1824      1
  1863   1794   1825      1
  1864   1795   1803      1
  1865   1795   1826      1
  1866   1796   1814      1
  1867   1796   1827      1
  1868   1796   1828      1
  1869   1797   1815      1
  1870   1797   1829      1
  1871   1797   1830      1
  1872   1798   1806      1
  1873   1798   1831      1
  1874   1799   4436      1
  1875   1800   1801      1
  1876   1800   1804      1
  1877   1801   1802      1
  1878   1802   1803      1
  1879   1802   1833      1
  1880   1804   2751      1
  1881   1805   1806      1
  1882   1805   1809      1
  1883   1806   1807      1
  1884   1807   1808      1
  1885   1807   1834      1
  1886   1808   1809      1
  1887   1808   1835      1
  1888   1809   1821      1
  1889   1810   1811      1
  1890   1810   1814      1
  1891   1811   1812      1
  1892   1811   1820      1
  1893   1812   1813      1
  1894   1812   1836      1
  1895   1813   1814      1
  1896   1813   1837      1
  1897   1815   1816      1
  1898   1815   1819      1
  1899   1816   1817      1
  1900   1816   1838      1
  1901   1817   1818      1
  1902   1817   1839      1
  1903   1819   2882      1
  1904   1821   1842      1
  1905   1821   1843      1
  1906   1844   1845      1
  1907   1844   1851      1
  1908   1844   1854      1
  1909   1844   1857      1
  1910   1845   1846      1
  1911   1845   1880      1
  1912   1846   1847      1
  1913   1846   1881      1
  1914   1847   1852      1
  1915   1847   1855      1
  1916   1848   1849      1
  1917   1848   1852      1
  1918   1848   1856      1
  1919   1849   1850      1
  1920   1850   1851      1
  1921   1850   1853      1
  1922   1851   1852      1
  1923   1851   1882      1
  1924   1852   1883      1
  1925   1853   1861      1
  1926   1853   1884      1
  1927   1854   1872      1
  1928   1854   1885      1
  1929   1854   1886      1
  1930   1855   1873      1
  1931   1855   1888      1
  1932   1856   1864      1
  1933   1856   1889      1
  1934   1857   1958      1
  1935   1858   1859      1
  1936   1858   1862      1
  1937   1859   1860      1
  1938   1859   1890      1
  1939   1860   1861      1
  1940   1860   1891      1
  1941   1861   1862      1
  1942   1863   1864      1
  1943   1863   1887      1
  1944   1864   1865      1
  1945   1865   1866      1
  1946   1865   1892      1
  1947   1866   1867      1
  1948   1866   1893      1
  1949   1867   3277      1
  1950   1868   1872      1
  1951   1869   1870      1
  1952   1869   2349      1
  1953   1870   1871      1
  1954   1870   1894      1
  1955   1871   1872      1
  1956   1871   1895      1
  1957   1873   1874      1
  1958   1873   1937      1
  1959   1874   1896      1
  1960   1874   1937      1
  1961   1875   1876      1
  1962   1875   1916      1
  1963   1875   1937      1
  1964   1876   1877      1
  1965   1876   1878      1
  1966   1877   1959      1
  1967   1878   1898      1
  1968   1878   1899      1
  1969   1879   1900      1
  1970   1879   1901      1
  1971   1897   1915      1
  1972   1902   1903      1
  1973   1902   1909      1
  1974   1902   1912      1
  1975   1902   1915      1
  1976   1903   1904      1
  1977   1903   1938      1
  1978   1904   1905      1
  1979   1905   1910      1
  1980   1905   1913      1
  1981   1906   1907      1
  1982   1906   1910      1
  1983   1906   1914      1
  1984   1907   1908      1
  1985   1908   1909      1
  1986   1908   1911      1
  1987   1909   1910      1
  1988   1909   1940      1
  1989   1910   1941      1
  1990   1911   1919      1
  1991   1911   1942      1
  1992   1912   1930      1
  1993   1912   1943      1
  1994   1912   1944      1
  1995   1913   1945      1
  1996   1913   1946      1
  1997   1914   1922      1
  1998   1914   1947      1
  1999   1916   1917      1
  2000   1916   1920      1
  2001   1917   1918      1
  2002   1917   1948      1
  2003   1918   1919      1
  2004   1918   1949      1
  2005   1919   1920      1
  2006   1921   1922      1
  2007   1921   1925      1
  2008   1922   1923      1
  2009   1923   1924      1
  2010   1923   1950      1
  2011   1924   1925      1
  2012   1924   1951      1
  2013   1926   1930      1
  2014   1927   1928      1
  2015   1928   1952      1
  2016   1929   1930      1
  2017   1929   1953      1
  2018   1931   1932      1
  2019   1931   1935      1
  2020   1932   1933      1
  2021   1933   1934      1
  2022   1933   1955      1
  2023   1934   1935      1
  2024   1934   1936      1
  2025   1936   1956      1
  2026   1936   1957      1
  2027   1960   1961      1
  2028   1960   1966      1
  2029   1960   1973      1
  2030   1961   1962      1
  2031   1961   1979      1
  2032   1962   1963      1
  2033   1962   1980      1
  2034   1963   1965      1
  2035   1964   1967      1
  2036   1964   1981      1
  2037   1964   1982      1
  2038   1967   1968      1
  2039   1967   1971      1
  2040   1968   1969      1
  2041   1968   1983      1
  2042   1969   1970      1
  2043   1969   1984      1
  2044   1970   1971      1
  2045   1972   1985      1
  2046   1973   1977      1
  2047   1973   1987      1
  2048   1973   1988      1
  2049   1974   1975      1
  2050   1974   4318      1
  2051   1975   1976      1
  2052   1975   1989      1
  2053   1976   1977      1
  2054   1976   1990      1
  2055   1977   1978      1
  2056   1991   1997      1
  2057   1992   1993      1
  2058   1992   2010      1
  2059   1993   1994      1
  2060   1993   2011      1
  2061   1994   1995      1
  2062   1994   1996      1
  2063   1995   1998      1
  2064   1995   2012      1
  2065   1995   2013      1
  2066   1998   1999      1
  2067   1998   2002      1
  2068   1999   2000      1
  2069   1999   2014      1
  2070   2000   2001      1
  2071   2000   2015      1
  2072   2001   2002      1
  2073   2001   2003      1
  2074   2003   2016      1
  2075   2003   2017      1
  2076   2004   2018      1
  2077   2004   2019      1
  2078   2005   2006      1
  2079   2006   2007      1
  2080   2006   2020      1
  2081   2007   2008      1
  2082   2007   2021      1
  2083   2008   2009      1
  2084   2009   2094      1
  2085   2022   2023      1
  2086   2022   2026      1
  2087   2022   2027      1
  2088   2023   2024      1
  2089   2024   2025      1
  2090   2024   2033      1
  2091   2025   2026      1
  2092   2025   2040      1
  2093   2026   2041      1
  2094   2027   2034      1
  2095   2027   2042      1
  2096   2028   2029      1
  2097   2028   2032      1
  2098   2028   2033      1
  2099   2029   2030      1
  2100   2030   2031      1
  2101   2031   2032      1
  2102   2031   2043      1
  2103   2032   2044      1
  2104   2033   2045      1
  2105   2034   2035      1
  2106   2034   2038      1
  2107   2035   2036      1
  2108   2035   2046      1
  2109   2036   2037      1
  2110   2036   2047      1
  2111   2037   2038      1
  2112   2037   2039      1
  2113   2039   2048      1
  2114   2039   2049      1
  2115   2050   2051      1
  2116   2050   2054      1
  2117   2050   2055      1
  2118   2051   2052      1
  2119   2052   2053      1
  2120   2052   2061      1
  2121   2053   2054      1
  2122   2053   2068      1
  2123   2054   2069      1
  2124   2055   2062      1
  2125   2055   2070      1
  2126   2056   2057      1
  2127   2056   2060      1
  2128   2056   2061      1
  2129   2057   2342      1
  2130   2058   2059      1
  2131   2058   2755      1
  2132   2059   2060      1
  2133   2059   2071      1
  2134   2060   2072      1
  2135   2061   2073      1
  2136   2062   2063      1
  2137   2062   2066      1
  2138   2063   2064      1
  2139   2063   2074      1
  2140   2064   2065      1
  2141   2064   2075      1
  2142   2065   2066      1
  2143   2065   2067      1
  2144   2067   2076      1
  2145   2067   2077      1
  2146   2078   2079      1
  2147   2078   2082      1
  2148   2078   2083      1
  2149   2079   2080      1
  2150   2080   2081      1
  2151   2080   2084      1
  2152   2081   2082      1
  2153   2081   2085      1
  2154   2082   2086      1
  2155   2083   2087      1
  2156   2084   2088      1
  2157   2089   2090      1
  2158   2091   2092      1
  2159   2091   2095      1
  2160   2092   2093      1
  2161   2092   2096      1
  2162   2093   2097      1
  2163   2094   2098      1
  2164   2095   2099      1
  2165   2100   2104      1
  2166   2100   2105      1
  2167   2101   2102      1
  2168   2102   2103      1
  2169   2102   2106      1
  2170   2103   2104      1
  2171   2103   2107      1
  2172   2104   2108      1
  2173   2105   2109      1
  2174   2106   2110      1
  2175   2111   2112      1
  2176   2111   2118      1
  2177   2111   2121      1
  2178   2111   2124      1
  2179   2112   2113      1
  2180   2112   2147      1
  2181   2113   2114      1
  2182   2113   2148      1
  2183   2114   2119      1
  2184   2114   2122      1
  2185   2114   2124      1
  2186   2115   2116      1
  2187   2115   2119      1
  2188   2115   2123      1
  2189   2116   2117      1
  2190   2117   2118      1
  2191   2117   2120      1
  2192   2118   2119      1
  2193   2118   2149      1
  2194   2119   2150      1
  2195   2120   2128      1
  2196   2120   2151      1
  2197   2121   2139      1
  2198   2121   2152      1
  2199   2121   2153      1
  2200   2122   2140      1
  2201   2122   2154      1
  2202   2123   2131      1
  2203   2123   2156      1
  2204   2125   2126      1
  2205   2126   2127      1
  2206   2126   2157      1
  2207   2127   2128      1
  2208   2127   2158      1
  2209   2128   2129      1
  2210   2130   2131      1
  2211   2130   2134      1
  2212   2131   2132      1
  2213   2132   2133      1
  2214   2132   2159      1
  2215   2133   2134      1
  2216   2133   2160      1
  2217   2134   2146      1
  2218   2135   2136      1
  2219   2135   2139      1
  2220   2136   2137      1
  2221   2136   2145      1
  2222   2137   2138      1
  2223   2137   2161      1
  2224   2138   2139      1
  2225   2138   2162      1
  2226   2140   2141      1
  2227   2140   2144      1
  2228   2141   2142      1
  2229   2141   2163      1
  2230   2142   2143      1
  2231   2142   2164      1
  2232   2143   2144      1
  2233   2143   2184      1
  2234   2143   2215      1
  2235   2145   2165      1
  2236   2145   2166      1
  2237   2146   2167      1
  2238   2146   2168      1
  2239   2155   2246      1
  2240   2169   2170      1
  2241   2169   2176      1
  2242   2169   2179      1
  2243   2169   2182      1
  2244   2170   2171      1
  2245   2170   2205      1
  2246   2171   2172      1
  2247   2171   2206      1
  2248   2172   2177      1
  2249   2172   2180      1
  2250   2172   2182      1
  2251   2173   2174      1
  2252   2173   2177      1
  2253   2173   2181      1
  2254   2174   2175      1
  2255   2175   2176      1
  2256   2175   2178      1
  2257   2176   2177      1
  2258   2176   2207      1
  2259   2177   2208      1
  2260   2178   2186      1
  2261   2178   2209      1
  2262   2179   2197      1
  2263   2179   2210      1
  2264   2179   2211      1
  2265   2180   2198      1
  2266   2180   2212      1
  2267   2180   2213      1
  2268   2181   2189      1
  2269   2181   2214      1
  2270   2183   2184      1
  2271   2183   2187      1
  2272   2184   2185      1
  2273   2185   2186      1
  2274   2185   2216      1
  2275   2186   2187      1
  2276   2188   2189      1
  2277   2188   2192      1
  2278   2189   2190      1
  2279   2190   2191      1
  2280   2190   2217      1
  2281   2191   2192      1
  2282   2191   2218      1
  2283   2192   2204      1
  2284   2193   2194      1
  2285   2193   2197      1
  2286   2194   2195      1
  2287   2194   2203      1
  2288   2195   2196      1
  2289   2195   2219      1
  2290   2196   2197      1
  2291   2196   2220      1
  2292   2198   2199      1
  2293   2198   2202      1
  2294   2199   2200      1
  2295   2199   2221      1
  2296   2200   2201      1
  2297   2200   2222      1
  2298   2202   2308      1
  2299   2203   2223      1
  2300   2203   2224      1
  2301   2204   2225      1
  2302   2204   2226      1
  2303   2227   2228      1
  2304   2227   2234      1
  2305   2227   2237      1
  2306   2227   2240      1
  2307   2228   2229      1
  2308   2228   2263      1
  2309   2229   2230      1
  2310   2229   2264      1
  2311   2230   2235      1
  2312   2230   2238      1
  2313   2231   2232      1
  2314   2231   2235      1
  2315   2231   2239      1
  2316   2232   2233      1
  2317   2233   2234      1
  2318   2233   2236      1
  2319   2234   2235      1
  2320   2234   2265      1
  2321   2235   2266      1
  2322   2236   2244      1
  2323   2236   2267      1
  2324   2237   2255      1
  2325   2237   2268      1
  2326   2237   2269      1
  2327   2238   2256      1
  2328   2238   2270      1
  2329   2238   2271      1
  2330   2239   2247      1
  2331   2239   2272      1
  2332   2240   2341      1
  2333   2241   2242      1
  2334   2241   2245      1
  2335   2241   2262      1
  2336   2242   2243      1
  2337   2242   2273      1
  2338   2243   2244      1
  2339   2243   2274      1
  2340   2244   2245      1
  2341   2246   2247      1
  2342   2247   2248      1
  2343   2248   2249      1
  2344   2248   2275      1
  2345   2249   2250      1
  2346   2249   2276      1
  2347   2250   3682      1
  2348   2251   2255      1
  2349   2252   2253      1
  2350   2253   2254      1
  2351   2253   2277      1
  2352   2254   2255      1
  2353   2254   2278      1
  2354   2256   2257      1
  2355   2256   2260      1
  2356   2256   2320      1
  2357   2257   2279      1
  2358   2257   2320      1
  2359   2258   2259      1
  2360   2258   2299      1
  2361   2258   2320      1
  2362   2259   2260      1
  2363   2259   2261      1
  2364   2261   2281      1
  2365   2261   2282      1
  2366   2262   2283      1
  2367   2262   2284      1
  2368   2280   2298      1
  2369   2285   2286      1
  2370   2285   2292      1
  2371   2285   2295      1
  2372   2285   2298      1
  2373   2286   2287      1
  2374   2286   2321      1
  2375   2287   2288      1
  2376   2287   2322      1
  2377   2288   2293      1
  2378   2288   2296      1
  2379   2289   2290      1
  2380   2289   2293      1
  2381   2289   2297      1
  2382   2290   2291      1
  2383   2291   2292      1
  2384   2291   2294      1
  2385   2292   2293      1
  2386   2292   2323      1
  2387   2293   2324      1
  2388   2294   2302      1
  2389   2294   2325      1
  2390   2295   2313      1
  2391   2295   2326      1
  2392   2295   2327      1
  2393   2296   2314      1
  2394   2296   2328      1
  2395   2296   2329      1
  2396   2297   2305      1
  2397   2297   2330      1
  2398   2299   2300      1
  2399   2299   2303      1
  2400   2300   2301      1
  2401   2300   2331      1
  2402   2301   2302      1
  2403   2301   2332      1
  2404   2302   2303      1
  2405   2304   2305      1
  2406   2305   2306      1
  2407   2306   2307      1
  2408   2306   2333      1
  2409   2307   2308      1
  2410   2307   2334      1
  2411   2309   2313      1
  2412   2310   2311      1
  2413   2310   4331      1
  2414   2311   2312      1
  2415   2311   2335      1
  2416   2312   2313      1
  2417   2312   2336      1
  2418   2314   2315      1
  2419   2314   2318      1
  2420   2315   2316      1
  2421   2315   2337      1
  2422   2316   2317      1
  2423   2316   2338      1
  2424   2317   2318      1
  2425   2317   2319      1
  2426   2319   2339      1
  2427   2319   2340      1
  2428   2343   2344      1
  2429   2343   2349      1
  2430   2343   2356      1
  2431   2344   2345      1
  2432   2344   2362      1
  2433   2345   2346      1
  2434   2345   2363      1
  2435   2346   2347      1
  2436   2346   2348      1
  2437   2347   2350      1
  2438   2347   2364      1
  2439   2347   2365      1
  2440   2350   2351      1
  2441   2350   2354      1
  2442   2351   2352      1
  2443   2351   2366      1
  2444   2352   2353      1
  2445   2352   2367      1
  2446   2353   2354      1
  2447   2353   2355      1
  2448   2355   2368      1
  2449   2355   2369      1
  2450   2356   2360      1
  2451   2356   2370      1
  2452   2356   2371      1
  2453   2357   2358      1
  2454   2357   3946      1
  2455   2357   3947      1
  2456   2358   2359      1
  2457   2358   2372      1
  2458   2359   2360      1
  2459   2359   2373      1
  2460   2360   2361      1
  2461   2374   2375      1
  2462   2374   2380      1
  2463   2374   2387      1
  2464   2375   2376      1
  2465   2375   2393      1
  2466   2376   2377      1
  2467   2376   2394      1
  2468   2377   2378      1
  2469   2377   2379      1
  2470   2378   2381      1
  2471   2378   2395      1
  2472   2378   2396      1
  2473   2381   2382      1
  2474   2381   2385      1
  2475   2382   2397      1
  2476   2383   2384      1
  2477   2383   2398      1
  2478   2384   2386      1
  2479   2386   2399      1
  2480   2386   2400      1
  2481   2387   2391      1
  2482   2387   2401      1
  2483   2387   2402      1
  2484   2388   2389      1
  2485   2388   2488      1
  2486   2389   2390      1
  2487   2389   2403      1
  2488   2390   2391      1
  2489   2390   2404      1
  2490   2391   2392      1
  2491   2392   4222      1
  2492   2405   2406      1
  2493   2405   2409      1
  2494   2405   2410      1
  2495   2406   2407      1
  2496   2407   2408      1
  2497   2407   2416      1
  2498   2408   2409      1
  2499   2408   2423      1
  2500   2409   2424      1
  2501   2410   2417      1
  2502   2410   2425      1
  2503   2411   2412      1
  2504   2411   2415      1
  2505   2411   2416      1
  2506   2412   2413      1
  2507   2413   2414      1
  2508   2414   2415      1
  2509   2414   2426      1
  2510   2415   2427      1
  2511   2416   2428      1
  2512   2417   2418      1
  2513   2417   2421      1
  2514   2418   2419      1
  2515   2418   2429      1
  2516   2419   2420      1
  2517   2419   2430      1
  2518   2420   2421      1
  2519   2420   2422      1
  2520   2422   2431      1
  2521   2422   2432      1
  2522   2433   2437      1
  2523   2434   2435      1
  2524   2435   2444      1
  2525   2436   2437      1
  2526   2436   2451      1
  2527   2437   2452      1
  2528   2438   2445      1
  2529   2439   2440      1
  2530   2439   2444      1
  2531   2440   2736      1
  2532   2441   2442      1
  2533   2442   2443      1
  2534   2442   2454      1
  2535   2443   2455      1
  2536   2444   2456      1
  2537   2445   2446      1
  2538   2445   2449      1
  2539   2446   2447      1
  2540   2447   2448      1
  2541   2447   2458      1
  2542   2448   2449      1
  2543   2448   2450      1
  2544   2450   2459      1
  2545   2450   2460      1
  2546   2461   2462      1
  2547   2461   2465      1
  2548   2461   2466      1
  2549   2462   2463      1
  2550   2463   2464      1
  2551   2463   2467      1
  2552   2464   2465      1
  2553   2464   2468      1
  2554   2465   2469      1
  2555   2466   2470      1
  2556   2467   2471      1
  2557   2472   2473      1
  2558   2472   2476      1
  2559   2472   2477      1
  2560   2473   2474      1
  2561   2474   2475      1
  2562   2474   2478      1
  2563   2475   2476      1
  2564   2475   2479      1
  2565   2476   2480      1
  2566   2477   2481      1
  2567   2478   2482      1
  2568   2483   2484      1
  2569   2483   2487      1
  2570   2484   2485      1
  2571   2485   2486      1
  2572   2485   2489      1
  2573   2486   2487      1
  2574   2486   2490      1
  2575   2487   2491      1
  2576   2488   2492      1
  2577   2489   2493      1
  2578   2494   2495      1
  2579   2494   2498      1
  2580   2494   2499      1
  2581   2495   2496      1
  2582   2496   2497      1
  2583   2496   2500      1
  2584   2497   2498      1
  2585   2497   2501      1
  2586   2498   2502      1
  2587   2499   2503      1
  2588   2500   2504      1
  2589   2505   2512      1
  2590   2506   2507      1
  2591   2507   2508      1
  2592   2507   2542      1
  2593   2508   2513      1
  2594   2508   2516      1
  2595   2508   2518      1
  2596   2509   2510      1
  2597   2509   2513      1
  2598   2509   2517      1
  2599   2511   2512      1
  2600   2511   2514      1
  2601   2512   2543      1
  2602   2513   2544      1
  2603   2514   2522      1
  2604   2514   2545      1
  2605   2515   2533      1
  2606   2515   2546      1
  2607   2516   2534      1
  2608   2516   2548      1
  2609   2516   2549      1
  2610   2517   2525      1
  2611   2517   2550      1
  2612   2519   2520      1
  2613   2519   2523      1
  2614   2520   2521      1
  2615   2520   2551      1
  2616   2521   2522      1
  2617   2521   2552      1
  2618   2522   2523      1
  2619   2524   2525      1
  2620   2524   2528      1
  2621   2525   2526      1
  2622   2526   2527      1
  2623   2526   2553      1
  2624   2527   2528      1
  2625   2527   2554      1
  2626   2528   2540      1
  2627   2529   2530      1
  2628   2529   2533      1
  2629   2530   2539      1
  2630   2531   2532      1
  2631   2531   2555      1
  2632   2532   2556      1
  2633   2534   2535      1
  2634   2534   2538      1
  2635   2535   2536      1
  2636   2535   2557      1
  2637   2536   2537      1
  2638   2536   2558      1
  2639   2537   2538      1
  2640   2537   2578      1
  2641   2539   2559      1
  2642   2539   2560      1
  2643   2540   2561      1
  2644   2540   2562      1
  2645   2563   2564      1
  2646   2563   2570      1
  2647   2563   2573      1
  2648   2563   2576      1
  2649   2564   2565      1
  2650   2564   2599      1
  2651   2565   2566      1
  2652   2565   2600      1
  2653   2566   2571      1
  2654   2566   2574      1
  2655   2566   2576      1
  2656   2567   2568      1
  2657   2567   2571      1
  2658   2567   2575      1
  2659   2568   2569      1
  2660   2569   2570      1
  2661   2569   2572      1
  2662   2570   2571      1
  2663   2570   2601      1
  2664   2571   2602      1
  2665   2572   2580      1
  2666   2572   2603      1
  2667   2573   2591      1
  2668   2573   2604      1
  2669   2573   2605      1
  2670   2574   2592      1
  2671   2574   2606      1
  2672   2574   2607      1
  2673   2575   2583      1
  2674   2575   2608      1
  2675   2577   2578      1
  2676   2577   2581      1
  2677   2578   2579      1
  2678   2579   2580      1
  2679   2579   2610      1
  2680   2580   2581      1
  2681   2582   2583      1
  2682   2582   2586      1
  2683   2583   2584      1
  2684   2584   2585      1
  2685   2584   2611      1
  2686   2585   2586      1
  2687   2585   2612      1
  2688   2586   2598      1
  2689   2587   2588      1
  2690   2587   2591      1
  2691   2588   2589      1
  2692   2588   2597      1
  2693   2589   2590      1
  2694   2589   2613      1
  2695   2590   2591      1
  2696   2590   2614      1
  2697   2592   2593      1
  2698   2592   2596      1
  2699   2593   2594      1
  2700   2593   2615      1
  2701   2594   2595      1
  2702   2594   2616      1
  2703   2595   4493      1
  2704   2597   2617      1
  2705   2597   2618      1
  2706   2598   2619      1
  2707   2598   2620      1
  2708   2621   2622      1
  2709   2621   2628      1
  2710   2621   2631      1
  2711   2621   2634      1
  2712   2622   2623      1
  2713   2622   2657      1
  2714   2623   2624      1
  2715   2623   2658      1
  2716   2624   2629      1
  2717   2624   2632      1
  2718   2625   2626      1
  2719   2625   2629      1
  2720   2625   2633      1
  2721   2626   2627      1
  2722   2627   2628      1
  2723   2627   2630      1
  2724   2628   2629      1
  2725   2628   2659      1
  2726   2629   2660      1
  2727   2630   2638      1
  2728   2630   2661      1
  2729   2631   2649      1
  2730   2631   2662      1
  2731   2631   2663      1
  2732   2632   2650      1
  2733   2632   2664      1
  2734   2633   2641      1
  2735   2635   2636      1
  2736   2635   2639      1
  2737   2635   2656      1
  2738   2636   2637      1
  2739   2636   2667      1
  2740   2640   2641      1
  2741   2640   2665      1
  2742   2642   2643      1
  2743   2642   2669      1
  2744   2643   2644      1
  2745   2643   2670      1
  2746   2644   4076      1
  2747   2645   2649      1
  2748   2646   2647      1
  2749   2647   2648      1
  2750   2647   2671      1
  2751   2648   2672      1
  2752   2650   2651      1
  2753   2650   2714      1
  2754   2651   2673      1
  2755   2651   2714      1
  2756   2652   2653      1
  2757   2652   2693      1
  2758   2652   2714      1
  2759   2653   2654      1
  2760   2653   2655      1
  2761   2654   2704      1
  2762   2655   2675      1
  2763   2655   2676      1
  2764   2656   2677      1
  2765   2656   2678      1
  2766   2674   2703      1
  2767   2679   2680      1
  2768   2679   2686      1
  2769   2679   2689      1
  2770   2679   2692      1
  2771   2680   2681      1
  2772   2680   2715      1
  2773   2681   2682      1
  2774   2681   2716      1
  2775   2682   2687      1
  2776   2682   2690      1
  2777   2683   2691      1
  2778   2684   2685      1
  2779   2685   2686      1
  2780   2685   2688      1
  2781   2686   2687      1
  2782   2686   2717      1
  2783   2687   2718      1
  2784   2688   2696      1
  2785   2688   2719      1
  2786   2689   2707      1
  2787   2689   2720      1
  2788   2689   2721      1
  2789   2690   2708      1
  2790   2691   2699      1
  2791   2691   2724      1
  2792   2692   4065      1
  2793   2693   2694      1
  2794   2693   2697      1
  2795   2694   2695      1
  2796   2694   2725      1
  2797   2695   2696      1
  2798   2695   2726      1
  2799   2696   2697      1
  2800   2698   2699      1
  2801   2698   2723      1
  2802   2699   2700      1
  2803   2700   2701      1
  2804   2700   2727      1
  2805   2701   2702      1
  2806   2701   2728      1
  2807   2703   2707      1
  2808   2704   2705      1
  2809   2705   2706      1
  2810   2705   2729      1
  2811   2706   2707      1
  2812   2706   2730      1
  2813   2708   2712      1
  2814   2709   2710      1
  2815   2709   2731      1
  2816   2710   2732      1
  2817   2711   2712      1
  2818   2711   2713      1
  2819   2713   2733      1
  2820   2713   2734      1
  2821   2737   2738      1
  2822   2737   2743      1
  2823   2737   2750      1
  2824   2738   2739      1
  2825   2738   2756      1
  2826   2739   2740      1
  2827   2739   2757      1
  2828   2740   2741      1
  2829   2740   2742      1
  2830   2741   2744      1
  2831   2741   2758      1
  2832   2741   2759      1
  2833   2744   2745      1
  2834   2744   2748      1
  2835   2745   2746      1
  2836   2745   2760      1
  2837   2746   2747      1
  2838   2746   2761      1
  2839   2747   2749      1
  2840   2749   2762      1
  2841   2749   2763      1
  2842   2750   2754      1
  2843   2750   2764      1
  2844   2750   2765      1
  2845   2751   2752      1
  2846   2752   2753      1
  2847   2752   2766      1
  2848   2753   2754      1
  2849   2753   2767      1
  2850   2754   2755      1
  2851   2768   2769      1
  2852   2768   2774      1
  2853   2768   2781      1
  2854   2769   2770      1
  2855   2769   2787      1
  2856   2770   2771      1
  2857   2770   2788      1
  2858   2771   2772      1
  2859   2771   2773      1
  2860   2772   2775      1
  2861   2772   2789      1
  2862   2772   2790      1
  2863   2775   2776      1
  2864   2775   2779      1
  2865   2776   2777      1
  2866   2776   2791      1
  2867   2777   2778      1
  2868   2777   2792      1
  2869   2778   2779      1
  2870   2778   2780      1
  2871   2780   2793      1
  2872   2780   2794      1
  2873   2781   2785      1
  2874   2781   2795      1
  2875   2781   2796      1
  2876   2782   2783      1
  2877   2782   4349      1
  2878   2783   2784      1
  2879   2783   2797      1
  2880   2784   2785      1
  2881   2784   2798      1
  2882   2785   2786      1
  2883   2799   2800      1
  2884   2799   2803      1
  2885   2799   2804      1
  2886   2800   2801      1
  2887   2801   2802      1
  2888   2801   2810      1
  2889   2802   2803      1
  2890   2802   2817      1
  2891   2803   2818      1
  2892   2804   2811      1
  2893   2804   2819      1
  2894   2805   2806      1
  2895   2805   2809      1
  2896   2805   2810      1
  2897   2807   2808      1
  2898   2807   3394      1
  2899   2808   2809      1
  2900   2808   2820      1
  2901   2809   2821      1
  2902   2810   2822      1
  2903   2811   2812      1
  2904   2811   2815      1
  2905   2812   2813      1
  2906   2812   2823      1
  2907   2813   2814      1
  2908   2813   2824      1
  2909   2814   2815      1
  2910   2814   2816      1
  2911   2816   2825      1
  2912   2816   2826      1
  2913   2827   2828      1
  2914   2827   2831      1
  2915   2827   2832      1
  2916   2828   2829      1
  2917   2829   2830      1
  2918   2829   2838      1
  2919   2830   2831      1
  2920   2830   2845      1
  2921   2831   2846      1
  2922   2832   2839      1
  2923   2832   2847      1
  2924   2833   2834      1
  2925   2833   2837      1
  2926   2833   2838      1
  2927   2834   3040      1
  2928   2835   2836      1
  2929   2836   2837      1
  2930   2836   2848      1
  2931   2837   2849      1
  2932   2838   2850      1
  2933   2839   2840      1
  2934   2839   2843      1
  2935   2840   2841      1
  2936   2840   2851      1
  2937   2841   2842      1
  2938   2841   2852      1
  2939   2842   2843      1
  2940   2842   2844      1
  2941   2844   2853      1
  2942   2844   2854      1
  2943   2855   2856      1
  2944   2855   2859      1
  2945   2855   2860      1
  2946   2857   2861      1
  2947   2858   2859      1
  2948   2859   2863      1
  2949   2860   2864      1
  2950   2861   2865      1
  2951   2861   4489      1
  2952   2866   2867      1
  2953   2866   2870      1
  2954   2867   2868      1
  2955   2868   2869      1
  2956   2868   2872      1
  2957   2869   2870      1
  2958   2869   2873      1
  2959   2870   2874      1
  2960   2871   2875      1
  2961   2872   2876      1
  2962   2877   2878      1
  2963   2877   2881      1
  2964   2877   2882      1
  2965   2878   2879      1
  2966   2879   2880      1
  2967   2879   2883      1
  2968   2880   2881      1
  2969   2880   2884      1
  2970   2881   2885      1
  2971   2882   2886      1
  2972   2883   2887      1
  2973   2888   2889      1
  2974   2888   2892      1
  2975   2888   2893      1
  2976   2889   2890      1
  2977   2890   2891      1
  2978   2890   2894      1
  2979   2891   2892      1
  2980   2891   2895      1
  2981   2892   2896      1
  2982   2893   2897      1
  2983   2893   4674      1
  2984   2894   2898      1
  2985   2899   2900      1
  2986   2899   2906      1
  2987   2899   2909      1
  2988   2900   2901      1
  2989   2900   2935      1
  2990   2901   2902      1
  2991   2901   2912      1
  2992   2901   2936      1
  2993   2902   2907      1
  2994   2902   2910      1
  2995   2902   2912      1
  2996   2903   2904      1
  2997   2903   2907      1
  2998   2903   2911      1
  2999   2904   2905      1
  3000   2905   2906      1
  3001   2905   2908      1
  3002   2906   2907      1
  3003   2906   2937      1
  3004   2907   2938      1
  3005   2908   2916      1
  3006   2908   2939      1
  3007   2909   2927      1
  3008   2909   2940      1
  3009   2909   2941      1
  3010   2910   2928      1
  3011   2910   2942      1
  3012   2910   2943      1
  3013   2911   2919      1
  3014   2911   2944      1
  3015   2913   2914      1
  3016   2913   2917      1
  3017   2914   2915      1
  3018   2915   2916      1
  3019   2915   2946      1
  3020   2916   2917      1
  3021   2918   2919      1
  3022   2918   2922      1
  3023   2919   2920      1
  3024   2920   2921      1
  3025   2920   2947      1
  3026   2921   2922      1
  3027   2921   2948      1
  3028   2922   2934      1
  3029   2923   2924      1
  3030   2923   2927      1
  3031   2924   2925      1
  3032   2924   2933      1
  3033   2925   2926      1
  3034   2925   2949      1
  3035   2926   2927      1
  3036   2926   2950      1
  3037   2928   2929      1
  3038   2928   2932      1
  3039   2929   2930      1
  3040   2929   2951      1
  3041   2930   2931      1
  3042   2930   2952      1
  3043   2931   2932      1
  3044   2931   2972      1
  3045   2931   3003      1
  3046   2933   2953      1
  3047   2933   2954      1
  3048   2934   2955      1
  3049   2934   2956      1
  3050   2957   2958      1
  3051   2957   2964      1
  3052   2957   2967      1
  3053   2957   2970      1
  3054   2958   2959      1
  3055   2958   2993      1
  3056   2959   2960      1
  3057   2959   2994      1
  3058   2960   2965      1
  3059   2960   2968      1
  3060   2960   2970      1
  3061   2961   2962      1
  3062   2961   2965      1
  3063   2961   2969      1
  3064   2962   2963      1
  3065   2963   2964      1
  3066   2963   2966      1
  3067   2964   2965      1
  3068   2964   2995      1
  3069   2965   2996      1
  3070   2966   2974      1
  3071   2966   2997      1
  3072   2967   2985      1
  3073   2967   2998      1
  3074   2967   2999      1
  3075   2968   2986      1
  3076   2968   3000      1
  3077   2968   3001      1
  3078   2969   2977      1
  3079   2969   3002      1
  3080   2971   2972      1
  3081   2971   2975      1
  3082   2972   2973      1
  3083   2973   2974      1
  3084   2973   3004      1
  3085   2974   2975      1
  3086   2976   2977      1
  3087   2976   2980      1
  3088   2977   2978      1
  3089   2978   2979      1
  3090   2978   3005      1
  3091   2979   2980      1
  3092   2979   3006      1
  3093   2980   2992      1
  3094   2981   2982      1
  3095   2981   2985      1
  3096   2982   2983      1
  3097   2982   2991      1
  3098   2983   2984      1
  3099   2983   3007      1
  3100   2984   2985      1
  3101   2984   3008      1
  3102   2986   2987      1
  3103   2986   2990      1
  3104   2987   2988      1
  3105   2987   3009      1
  3106   2988   2989      1
  3107   2988   3010      1
  3108   2989   2990      1
  3109   2989   3986      1
  3110   2991   3011      1
  3111   2991   3012      1
  3112   2992   3013      1
  3113   2992   3014      1
  3114   3015   3016      1
  3115   3015   3022      1
  3116   3015   3025      1
  3117   3015   3028      1
  3118   3016   3017      1
  3119   3016   3051      1
  3120   3017   3018      1
  3121   3017   3052      1
  3122   3018   3023      1
  3123   3018   3026      1
  3124   3019   3020      1
  3125   3019   3023      1
  3126   3019   3027      1
  3127   3020   3021      1
  3128   3021   3022      1
  3129   3021   3024      1
  3130   3022   3023      1
  3131   3022   3053      1
  3132   3023   3054      1
  3133   3024   3032      1
  3134   3024   3055      1
  3135   3025   3043      1
  3136   3025   3056      1
  3137   3025   3057      1
  3138   3026   3044      1
  3139   3026   3059      1
  3140   3027   3035      1
  3141   3027   3060      1
  3142   3028   3129      1
  3143   3029   3033      1
  3144   3029   3050      1
  3145   3030   3061      1
  3146   3031   3032      1
  3147   3032   3033      1
  3148   3034   3035      1
  3149   3034   3058      1
  3150   3035   3036      1
  3151   3036   3037      1
  3152   3036   3063      1
  3153   3037   3038      1
  3154   3037   3064      1
  3155   3038   4459      1
  3156   3039   3043      1
  3157   3040   3041      1
  3158   3041   3042      1
  3159   3041   3065      1
  3160   3042   3043      1
  3161   3042   3066      1
  3162   3044   3045      1
  3163   3044   3108      1
  3164   3045   3067      1
  3165   3045   3108      1
  3166   3046   3047      1
  3167   3046   3087      1
  3168   3046   3108      1
  3169   3047   3048      1
  3170   3047   3049      1
  3171   3048   3130      1
  3172   3049   3069      1
  3173   3049   3070      1
  3174   3050   3071      1
  3175   3050   3072      1
  3176   3068   3079      1
  3177   3073   3074      1
  3178   3073   3080      1
  3179   3073   3083      1
  3180   3073   3086      1
  3181   3074   3075      1
  3182   3074   3109      1
  3183   3075   3076      1
  3184   3075   3110      1
  3185   3076   3081      1
  3186   3076   3084      1
  3187   3077   3078      1
  3188   3077   3081      1
  3189   3077   3085      1
  3190   3078   3079      1
  3191   3079   3080      1
  3192   3079   3082      1
  3193   3080   3081      1
  3194   3080   3111      1
  3195   3081   3112      1
  3196   3082   3090      1
  3197   3082   3113      1
  3198   3083   3101      1
  3199   3083   3114      1
  3200   3083   3115      1
  3201   3084   3102      1
  3202   3084   3116      1
  3203   3084   3117      1
  3204   3085   3093      1
  3205   3085   3118      1
  3206   3087   3088      1
  3207   3087   3091      1
  3208   3088   3089      1
  3209   3088   3119      1
  3210   3089   3090      1
  3211   3089   3120      1
  3212   3090   3091      1
  3213   3092   3093      1
  3214   3092   3096      1
  3215   3093   3094      1
  3216   3094   3095      1
  3217   3094   3121      1
  3218   3095   3096      1
  3219   3095   3122      1
  3220   3097   3098      1
  3221   3097   3101      1
  3222   3098   3099      1
  3223   3099   3100      1
  3224   3099   3123      1
  3225   3100   3101      1
  3226   3100   3124      1
  3227   3102   3103      1
  3228   3102   3106      1
  3229   3103   3104      1
  3230   3103   3125      1
  3231   3104   3105      1
  3232   3104   3126      1
  3233   3105   3106      1
  3234   3105   3107      1
  3235   3107   3127      1
  3236   3107   3128      1
  3237   3131   3132      1
  3238   3131   3137      1
  3239   3132   3133      1
  3240   3132   3150      1
  3241   3133   3134      1
  3242   3133   3151      1
  3243   3134   3135      1
  3244   3134   3136      1
  3245   3135   3138      1
  3246   3135   3152      1
  3247   3135   3153      1
  3248   3136   4039      1
  3249   3138   3139      1
  3250   3139   3154      1
  3251   3140   3141      1
  3252   3140   3155      1
  3253   3141   3142      1
  3254   3141   3143      1
  3255   3143   3156      1
  3256   3143   3157      1
  3257   3144   3148      1
  3258   3144   3158      1
  3259   3145   3146      1
  3260   3145   3149      1
  3261   3146   3147      1
  3262   3146   3160      1
  3263   3147   3148      1
  3264   3147   3161      1
  3265   3148   3149      1
  3266   3162   3163      1
  3267   3162   3168      1
  3268   3162   3175      1
  3269   3163   3164      1
  3270   3163   3181      1
  3271   3164   3165      1
  3272   3164   3182      1
  3273   3165   3166      1
  3274   3165   3167      1
  3275   3166   3169      1
  3276   3166   3183      1
  3277   3166   3184      1
  3278   3169   3170      1
  3279   3169   3173      1
  3280   3170   3171      1
  3281   3170   3185      1
  3282   3171   3172      1
  3283   3171   3186      1
  3284   3172   3173      1
  3285   3172   3174      1
  3286   3174   3187      1
  3287   3174   3188      1
  3288   3175   3179      1
  3289   3175   3189      1
  3290   3175   3190      1
  3291   3176   3177      1
  3292   3177   3178      1
  3293   3177   3191      1
  3294   3178   3179      1
  3295   3178   3192      1
  3296   3179   3180      1
  3297   3193   3194      1
  3298   3193   3197      1
  3299   3193   3198      1
  3300   3194   3195      1
  3301   3195   3196      1
  3302   3196   3197      1
  3303   3196   3211      1
  3304   3197   3212      1
  3305   3198   3205      1
  3306   3198   3213      1
  3307   3199   3200      1
  3308   3199   3203      1
  3309   3199   3204      1
  3310   3200   3201      1
  3311   3201   3202      1
  3312   3201   3785      1
  3313   3202   3203      1
  3314   3202   3214      1
  3315   3204   3216      1
  3316   3205   3206      1
  3317   3205   3209      1
  3318   3206   3207      1
  3319   3206   3217      1
  3320   3207   3208      1
  3321   3207   3218      1
  3322   3208   3209      1
  3323   3208   3210      1
  3324   3210   3219      1
  3325   3210   3220      1
  3326   3221   3225      1
  3327   3221   3226      1
  3328   3223   3224      1
  3329   3224   3225      1
  3330   3225   3240      1
  3331   3226   3233      1
  3332   3226   3241      1
  3333   3227   3228      1
  3334   3227   3232      1
  3335   3228   3535      1
  3336   3229   3230      1
  3337   3230   3231      1
  3338   3230   3242      1
  3339   3231   3243      1
  3340   3232   3244      1
  3341   3233   3234      1
  3342   3233   3237      1
  3343   3234   3235      1
  3344   3234   3245      1
  3345   3235   3236      1
  3346   3235   3246      1
  3347   3236   3237      1
  3348   3236   3238      1
  3349   3238   3247      1
  3350   3238   3248      1
  3351   3249   3250      1
  3352   3249   3253      1
  3353   3249   3254      1
  3354   3250   3251      1
  3355   3251   3252      1
  3356   3251   3255      1
  3357   3252   3253      1
  3358   3252   3256      1
  3359   3253   3257      1
  3360   3254   3258      1
  3361   3255   3259      1
  3362   3260   3264      1
  3363   3260   3265      1
  3364   3261   3262      1
  3365   3262   3263      1
  3366   3262   3266      1
  3367   3263   3264      1
  3368   3263   3267      1
  3369   3264   3268      1
  3370   3265   3269      1
  3371   3266   3270      1
  3372   3271   3272      1
  3373   3271   3275      1
  3374   3271   3276      1
  3375   3272   3273      1
  3376   3273   3274      1
  3377   3273   3277      1
  3378   3274   3275      1
  3379   3274   3278      1
  3380   3275   3279      1
  3381   3276   3280      1
  3382   3277   3281      1
  3383   3282   3283      1
  3384   3282   3286      1
  3385   3282   3287      1
  3386   3283   3284      1
  3387   3284   3285      1
  3388   3284   3288      1
  3389   3285   3286      1
  3390   3285   3289      1
  3391   3286   3290      1
  3392   3287   3291      1
  3393   3287   3844      1
  3394   3288   3292      1
  3395   3293   3294      1
  3396   3293   3297      1
  3397   3293   3298      1
  3398   3294   3295      1
  3399   3295   3296      1
  3400   3295   3299      1
  3401   3296   3297      1
  3402   3296   3300      1
  3403   3297   3301      1
  3404   3298   3302      1
  3405   3299   3303      1
  3406   3304   3305      1
  3407   3304   3311      1
  3408   3304   3314      1
  3409   3304   3317      1
  3410   3305   3306      1
  3411   3305   3340      1
  3412   3306   3307      1
  3413   3306   3341      1
  3414   3307   3312      1
  3415   3307   3315      1
  3416   3307   3317      1
  3417   3308   3309      1
  3418   3308   3312      1
  3419   3308   3316      1
  3420   3309   3310      1
  3421   3310   3311      1
  3422   3310   3313      1
  3423   3311   3312      1
  3424   3311   3342      1
  3425   3312   3343      1
  3426   3313   3321      1
  3427   3313   3344      1
  3428   3314   3332      1
  3429   3314   3345      1
  3430   3314   3346      1
  3431   3315   3333      1
  3432   3315   3347      1
  3433   3315   3348      1
  3434   3316   3324      1
  3435   3316   3349      1
  3436   3318   3319      1
  3437   3318   3322      1
  3438   3319   3320      1
  3439   3319   3350      1
  3440   3320   3321      1
  3441   3320   3351      1
  3442   3321   3322      1
  3443   3323   3324      1
  3444   3323   3327      1
  3445   3324   3325      1
  3446   3325   3326      1
  3447   3325   3352      1
  3448   3326   3327      1
  3449   3326   3353      1
  3450   3327   3339      1
  3451   3328   3329      1
  3452   3328   3332      1
  3453   3329   3330      1
  3454   3329   3338      1
  3455   3330   3331      1
  3456   3330   3354      1
  3457   3331   3332      1
  3458   3331   3355      1
  3459   3333   3334      1
  3460   3333   3337      1
  3461   3334   3335      1
  3462   3334   3356      1
  3463   3335   3336      1
  3464   3335   3357      1
  3465   3336   3337      1
  3466   3336   3377      1
  3467   3336   3408      1
  3468   3338   3358      1
  3469   3338   3359      1
  3470   3339   3360      1
  3471   3339   3361      1
  3472   3362   3363      1
  3473   3362   3369      1
  3474   3362   3372      1
  3475   3362   3375      1
  3476   3363   3364      1
  3477   3363   3398      1
  3478   3364   3365      1
  3479   3364   3399      1
  3480   3365   3370      1
  3481   3365   3373      1
  3482   3365   3375      1
  3483   3366   3367      1
  3484   3366   3370      1
  3485   3366   3374      1
  3486   3367   3368      1
  3487   3368   3369      1
  3488   3368   3371      1
  3489   3369   3370      1
  3490   3369   3400      1
  3491   3370   3401      1
  3492   3371   3379      1
  3493   3371   3402      1
  3494   3372   3390      1
  3495   3372   3403      1
  3496   3372   3404      1
  3497   3373   3391      1
  3498   3373   3405      1
  3499   3373   3406      1
  3500   3374   3382      1
  3501   3374   3407      1
  3502   3376   3377      1
  3503   3376   3380      1
  3504   3377   3378      1
  3505   3378   3379      1
  3506   3378   3409      1
  3507   3379   3380      1
  3508   3381   3382      1
  3509   3381   3385      1
  3510   3383   3384      1
  3511   3383   3410      1
  3512   3384   3411      1
  3513   3385   3397      1
  3514   3386   3387      1
  3515   3386   3390      1
  3516   3387   3388      1
  3517   3387   3396      1
  3518   3388   3389      1
  3519   3388   3412      1
  3520   3389   3390      1
  3521   3389   3413      1
  3522   3391   3392      1
  3523   3391   3395      1
  3524   3392   3393      1
  3525   3392   3414      1
  3526   3393   3415      1
  3527   3396   3416      1
  3528   3396   3417      1
  3529   3397   3419      1
  3530   3420   3421      1
  3531   3420   3427      1
  3532   3420   3430      1
  3533   3420   3433      1
  3534   3421   3422      1
  3535   3422   3423      1
  3536   3423   3428      1
  3537   3423   3431      1
  3538   3424   3425      1
  3539   3424   3428      1
  3540   3424   3432      1
  3541   3425   3426      1
  3542   3426   3427      1
  3543   3426   3429      1
  3544   3427   3428      1
  3545   3427   3458      1
  3546   3428   3459      1
  3547   3429   3437      1
  3548   3429   3460      1
  3549   3430   3448      1
  3550   3430   3461      1
  3551   3430   3462      1
  3552   3431   3449      1
  3553   3431   3464      1
  3554   3432   3440      1
  3555   3432   3465      1
  3556   3433   3534      1
  3557   3434   3435      1
  3558   3434   3438      1
  3559   3434   3455      1
  3560   3435   3436      1
  3561   3435   3466      1
  3562   3436   3437      1
  3563   3436   3467      1
  3564   3437   3438      1
  3565   3439   3440      1
  3566   3439   3463      1
  3567   3440   3441      1
  3568   3441   3442      1
  3569   3441   3468      1
  3570   3442   3443      1
  3571   3442   3469      1
  3572   3444   3445      1
  3573   3445   3446      1
  3574   3446   3470      1
  3575   3447   3448      1
  3576   3447   3471      1
  3577   3449   3450      1
  3578   3450   3472      1
  3579   3450   3513      1
  3580   3451   3452      1
  3581   3451   3492      1
  3582   3452   3453      1
  3583   3452   3454      1
  3584   3454   3474      1
  3585   3454   3475      1
  3586   3455   3476      1
  3587   3455   3477      1
  3588   3473   3491      1
  3589   3478   3479      1
  3590   3478   3485      1
  3591   3478   3488      1
  3592   3479   3480      1
  3593   3479   3514      1
  3594   3480   3481      1
  3595   3480   3515      1
  3596   3481   3486      1
  3597   3482   3486      1
  3598   3484   3485      1
  3599   3485   3486      1
  3600   3485   3516      1
  3601   3486   3517      1
  3602   3487   3495      1
  3603   3488   3519      1
  3604   3488   3520      1
  3605   3489   3521      1
  3606   3489   3522      1
  3607   3490   3523      1
  3608   3492   3493      1
  3609   3493   3494      1
  3610   3493   3524      1
  3611   3494   3495      1
  3612   3494   3525      1
  3613   3497   3498      1
  3614   3497   3501      1
  3615   3498   3499      1
  3616   3499   3500      1
  3617   3500   3501      1
  3618   3502   3506      1
  3619   3503   3504      1
  3620   3504   3505      1
  3621   3504   3528      1
  3622   3505   3506      1
  3623   3505   3529      1
  3624   3507   3508      1
  3625   3507   3511      1
  3626   3508   3509      1
  3627   3508   3530      1
  3628   3509   3510      1
  3629   3509   3531      1
  3630   3510   3511      1
  3631   3510   3512      1
  3632   3512   3532      1
  3633   3512   3533      1
  3634   3536   3537      1
  3635   3536   3542      1
  3636   3536   3549      1
  3637   3537   3538      1
  3638   3537   3555      1
  3639   3538   3539      1
  3640   3538   3556      1
  3641   3539   3540      1
  3642   3539   3541      1
  3643   3540   3543      1
  3644   3540   3557      1
  3645   3540   3558      1
  3646   3543   3544      1
  3647   3543   3547      1
  3648   3544   3545      1
  3649   3544   3559      1
  3650   3545   3546      1
  3651   3545   3560      1
  3652   3546   3547      1
  3653   3546   3548      1
  3654   3548   3561      1
  3655   3548   3562      1
  3656   3549   3553      1
  3657   3549   3563      1
  3658   3549   3564      1
  3659   3550   3551      1
  3660   3550   3554      1
  3661   3551   3552      1
  3662   3551   3565      1
  3663   3552   3553      1
  3664   3552   3566      1
  3665   3553   3554      1
  3666   3567   3568      1
  3667   3567   3573      1
  3668   3567   3580      1
  3669   3568   3569      1
  3670   3568   3586      1
  3671   3569   3570      1
  3672   3569   3587      1
  3673   3570   3571      1
  3674   3570   3572      1
  3675   3571   3574      1
  3676   3571   3588      1
  3677   3571   3589      1
  3678   3574   3575      1
  3679   3574   3578      1
  3680   3575   3576      1
  3681   3575   3590      1
  3682   3576   3577      1
  3683   3576   3591      1
  3684   3577   3578      1
  3685   3577   3579      1
  3686   3579   3592      1
  3687   3579   3593      1
  3688   3580   3584      1
  3689   3580   3594      1
  3690   3580   3595      1
  3691   3581   3582      1
  3692   3582   3583      1
  3693   3582   3596      1
  3694   3583   3584      1
  3695   3583   3597      1
  3696   3584   3585      1
  3697   3585   4411      1
  3698   3598   3599      1
  3699   3598   3602      1
  3700   3598   3603      1
  3701   3599   3600      1
  3702   3600   3601      1
  3703   3600   3609      1
  3704   3601   3602      1
  3705   3601   3616      1
  3706   3602   3617      1
  3707   3603   3610      1
  3708   3603   3618      1
  3709   3604   3605      1
  3710   3604   3608      1
  3711   3604   3609      1
  3712   3606   3607      1
  3713   3607   3608      1
  3714   3607   3619      1
  3715   3608   3620      1
  3716   3609   3621      1
  3717   3610   3611      1
  3718   3610   3614      1
  3719   3611   3612      1
  3720   3611   3622      1
  3721   3612   3613      1
  3722   3612   3623      1
  3723   3613   3614      1
  3724   3613   3615      1
  3725   3615   3624      1
  3726   3615   3625      1
  3727   3626   3627      1
  3728   3626   3630      1
  3729   3626   3631      1
  3730   3627   3628      1
  3731   3628   3629      1
  3732   3628   3637      1
  3733   3629   3630      1
  3734   3629   3644      1
  3735   3630   3645      1
  3736   3631   3638      1
  3737   3631   3646      1
  3738   3632   3633      1
  3739   3632   3636      1
  3740   3632   3637      1
  3741   3633   3634      1
  3742   3634   3635      1
  3743   3635   3636      1
  3744   3635   3647      1
  3745   3636   3648      1
  3746   3637   3649      1
  3747   3638   3639      1
  3748   3638   3642      1
  3749   3639   3640      1
  3750   3640   3641      1
  3751   3641   3642      1
  3752   3641   3643      1
  3753   3643   3652      1
  3754   3643   3653      1
  3755   3654   3655      1
  3756   3654   3658      1
  3757   3654   3659      1
  3758   3655   3656      1
  3759   3656   3657      1
  3760   3656   3660      1
  3761   3657   3658      1
  3762   3657   3661      1
  3763   3658   3662      1
  3764   3659   3663      1
  3765   3665   3666      1
  3766   3665   3669      1
  3767   3665   3670      1
  3768   3666   3667      1
  3769   3667   3668      1
  3770   3667   3671      1
  3771   3668   3669      1
  3772   3668   3672      1
  3773   3669   3673      1
  3774   3670   3674      1
  3775   3671   3675      1
  3776   3676   3677      1
  3777   3676   3680      1
  3778   3676   3681      1
  3779   3677   3678      1
  3780   3678   3679      1
  3781   3678   3682      1
  3782   3679   3680      1
  3783   3679   3683      1
  3784   3680   3684      1
  3785   3681   3685      1
  3786   3682   3686      1
  3787   3687   3688      1
  3788   3687   3692      1
  3789   3689   3690      1
  3790   3689   3693      1
  3791   3690   3691      1
  3792   3690   3694      1
  3793   3691   3695      1
  3794   3692   3696      1
  3795   3693   3697      1
  3796   3698   3699      1
  3797   3698   3702      1
  3798   3698   3703      1
  3799   3699   3700      1
  3800   3700   3701      1
  3801   3700   3704      1
  3802   3701   3702      1
  3803   3701   3705      1
  3804   3702   3706      1
  3805   3703   3707      1
  3806   3704   3708      1
  3807   3709   3710      1
  3808   3709   3716      1
  3809   3709   3719      1
  3810   3709   3722      1
  3811   3710   3711      1
  3812   3710   3745      1
  3813   3711   3712      1
  3814   3711   3746      1
  3815   3712   3717      1
  3816   3712   3720      1
  3817   3712   3722      1
  3818   3713   3714      1
  3819   3713   3717      1
  3820   3713   3721      1
  3821   3714   3715      1
  3822   3715   3716      1
  3823   3715   3718      1
  3824   3716   3717      1
  3825   3716   3747      1
  3826   3717   3748      1
  3827   3718   3726      1
  3828   3718   3749      1
  3829   3719   3737      1
  3830   3719   3750      1
  3831   3719   3751      1
  3832   3720   3738      1
  3833   3720   3752      1
  3834   3720   3753      1
  3835   3721   3729      1
  3836   3721   3754      1
  3837   3723   3724      1
  3838   3723   4566      1
  3839   3724   3725      1
  3840   3724   3755      1
  3841   3725   3726      1
  3842   3725   3756      1
  3843   3726   3727      1
  3844   3727   4565      1
  3845   3728   3729      1
  3846   3728   3732      1
  3847   3729   3730      1
  3848   3730   3731      1
  3849   3730   3757      1
  3850   3731   3732      1
  3851   3731   3758      1
  3852   3732   3744      1
  3853   3733   3734      1
  3854   3733   3737      1
  3855   3734   3735      1
  3856   3734   3743      1
  3857   3735   3736      1
  3858   3735   3759      1
  3859   3736   3737      1
  3860   3736   3760      1
  3861   3738   3739      1
  3862   3738   3742      1
  3863   3739   3740      1
  3864   3739   3761      1
  3865   3740   3741      1
  3866   3740   3762      1
  3867   3741   3742      1
  3868   3741   3782      1
  3869   3741   3813      1
  3870   3743   3763      1
  3871   3743   3764      1
  3872   3744   3765      1
  3873   3744   3766      1
  3874   3767   3768      1
  3875   3767   3774      1
  3876   3767   3777      1
  3877   3767   3780      1
  3878   3768   3769      1
  3879   3768   3803      1
  3880   3769   3770      1
  3881   3769   3804      1
  3882   3770   3775      1
  3883   3770   3778      1
  3884   3770   3780      1
  3885   3771   3772      1
  3886   3771   3775      1
  3887   3771   3779      1
  3888   3772   3773      1
  3889   3773   3774      1
  3890   3773   3776      1
  3891   3774   3775      1
  3892   3774   3805      1
  3893   3775   3806      1
  3894   3776   3784      1
  3895   3776   3807      1
  3896   3777   3795      1
  3897   3777   3808      1
  3898   3777   3809      1
  3899   3778   3796      1
  3900   3778   3810      1
  3901   3778   3811      1
  3902   3779   3787      1
  3903   3779   3812      1
  3904   3781   3782      1
  3905   3782   3783      1
  3906   3783   3784      1
  3907   3783   3814      1
  3908   3784   3785      1
  3909   3786   3787      1
  3910   3786   3790      1
  3911   3787   3788      1
  3912   3788   3789      1
  3913   3788   3815      1
  3914   3789   3790      1
  3915   3789   3816      1
  3916   3790   3802      1
  3917   3791   3792      1
  3918   3791   3795      1
  3919   3792   3793      1
  3920   3792   3801      1
  3921   3793   3794      1
  3922   3793   3817      1
  3923   3794   3795      1
  3924   3794   3818      1
  3925   3796   3797      1
  3926   3796   3800      1
  3927   3797   3798      1
  3928   3797   3819      1
  3929   3798   3799      1
  3930   3798   3820      1
  3931   3801   3821      1
  3932   3801   3822      1
  3933   3802   3823      1
  3934   3802   3824      1
  3935   3825   3826      1
  3936   3825   3832      1
  3937   3825   3835      1
  3938   3825   3838      1
  3939   3826   3827      1
  3940   3826   3861      1
  3941   3827   3828      1
  3942   3827   3862      1
  3943   3828   3833      1
  3944   3828   3836      1
  3945   3829   3830      1
  3946   3829   3833      1
  3947   3829   3837      1
  3948   3830   3831      1
  3949   3831   3832      1
  3950   3831   3834      1
  3951   3832   3833      1
  3952   3832   3863      1
  3953   3833   3864      1
  3954   3834   3842      1
  3955   3834   3865      1
  3956   3835   3853      1
  3957   3835   3866      1
  3958   3835   3867      1
  3959   3836   3854      1
  3960   3836   3868      1
  3961   3836   3869      1
  3962   3837   3845      1
  3963   3837   3870      1
  3964   3838   3939      1
  3965   3839   3840      1
  3966   3839   3843      1
  3967   3839   3860      1
  3968   3840   3841      1
  3969   3840   3871      1
  3970   3841   3842      1
  3971   3841   3872      1
  3972   3842   3843      1
  3973   3844   3845      1
  3974   3845   3846      1
  3975   3846   3847      1
  3976   3846   3873      1
  3977   3847   3848      1
  3978   3847   3874      1
  3979   3849   3853      1
  3980   3850   3851      1
  3981   3851   3852      1
  3982   3851   3875      1
  3983   3852   3853      1
  3984   3852   3876      1
  3985   3854   3855      1
  3986   3854   3918      1
  3987   3855   3877      1
  3988   3855   3918      1
  3989   3856   3857      1
  3990   3856   3897      1
  3991   3856   3918      1
  3992   3857   3858      1
  3993   3857   3859      1
  3994   3858   3940      1
  3995   3859   3879      1
  3996   3859   3880      1
  3997   3860   3881      1
  3998   3860   3882      1
  3999   3878   3896      1
  4000   3883   3884      1
  4001   3883   3890      1
  4002   3883   3893      1
  4003   3884   3885      1
  4004   3884   3919      1
  4005   3885   3886      1
  4006   3885   3920      1
  4007   3886   3891      1
  4008   3886   3894      1
  4009   3887   3888      1
  4010   3887   3891      1
  4011   3887   3895      1
  4012   3888   3889      1
  4013   3889   3890      1
  4014   3889   3892      1
  4015   3890   3891      1
  4016   3890   3921      1
  4017   3891   3922      1
  4018   3892   3900      1
  4019   3892   3923      1
  4020   3893   3911      1
  4021   3893   3924      1
  4022   3893   3925      1
  4023   3894   3912      1
  4024   3894   3926      1
  4025   3894   3927      1
  4026   3895   3903      1
  4027   3895   3928      1
  4028   3896   3910      1
  4029   3897   3898      1
  4030   3897   3901      1
  4031   3898   3899      1
  4032   3898   3929      1
  4033   3899   3900      1
  4034   3899   3930      1
  4035   3900   3901      1
  4036   3902   3903      1
  4037   3902   3906      1
  4038   3903   3904      1
  4039   3904   3905      1
  4040   3904   3931      1
  4041   3905   3906      1
  4042   3905   3932      1
  4043   3907   3911      1
  4044   3908   3909      1
  4045   3909   3910      1
  4046   3909   3933      1
  4047   3910   3911      1
  4048   3910   3934      1
  4049   3912   3913      1
  4050   3912   3916      1
  4051   3913   3914      1
  4052   3913   3935      1
  4053   3914   3915      1
  4054   3914   3936      1
  4055   3915   3916      1
  4056   3915   3917      1
  4057   3917   3937      1
  4058   3917   3938      1
  4059   3941   3942      1
  4060   3941   3947      1
  4061   3941   3954      1
  4062   3942   3943      1
  4063   3942   3960      1
  4064   3943   3944      1
  4065   3943   3961      1
  4066   3944   3945      1
  4067   3944   3946      1
  4068   3945   3948      1
  4069   3945   3962      1
  4070   3945   3963      1
  4071   3948   3949      1
  4072   3948   3952      1
  4073   3949   3950      1
  4074   3949   3964      1
  4075   3950   3951      1
  4076   3950   3965      1
  4077   3951   3952      1
  4078   3951   3953      1
  4079   3953   3966      1
  4080   3953   3967      1
  4081   3954   3958      1
  4082   3954   3968      1
  4083   3954   3969      1
  4084   3956   3957      1
  4085   3957   3958      1
  4086   3957   3971      1
  4087   3958   3959      1
  4088   3972   3973      1
  4089   3972   3978      1
  4090   3972   3985      1
  4091   3973   3974      1
  4092   3973   3991      1
  4093   3974   3975      1
  4094   3974   3992      1
  4095   3975   3976      1
  4096   3975   3977      1
  4097   3976   3979      1
  4098   3976   3993      1
  4099   3976   3994      1
  4100   3979   3980      1
  4101   3979   3983      1
  4102   3980   3981      1
  4103   3980   3995      1
  4104   3981   3982      1
  4105   3981   3996      1
  4106   3982   3983      1
  4107   3982   3984      1
  4108   3984   3997      1
  4109   3984   3998      1
  4110   3985   3989      1
  4111   3985   3999      1
  4112   3985   4000      1
  4113   3986   3987      1
  4114   3987   3988      1
  4115   3987   4001      1
  4116   3988   3989      1
  4117   3988   4002      1
  4118   3989   3990      1
  4119   4003   4004      1
  4120   4003   4007      1
  4121   4003   4008      1
  4122   4004   4005      1
  4123   4005   4006      1
  4124   4005   4014      1
  4125   4006   4007      1
  4126   4006   4021      1
  4127   4007   4022      1
  4128   4008   4015      1
  4129   4008   4023      1
  4130   4009   4010      1
  4131   4009   4013      1
  4132   4009   4014      1
  4133   4011   4012      1
  4134   4012   4024      1
  4135   4013   4025      1
  4136   4014   4026      1
  4137   4015   4016      1
  4138   4015   4019      1
  4139   4016   4017      1
  4140   4016   4027      1
  4141   4017   4018      1
  4142   4017   4028      1
  4143   4018   4019      1
  4144   4018   4020      1
  4145   4020   4029      1
  4146   4020   4030      1
  4147   4031   4032      1
  4148   4031   4035      1
  4149   4031   4036      1
  4150   4032   4033      1
  4151   4033   4034      1
  4152   4033   4042      1
  4153   4034   4035      1
  4154   4034   4049      1
  4155   4035   4050      1
  4156   4036   4043      1
  4157   4037   4041      1
  4158   4037   4042      1
  4159   4038   4312      1
  4160   4040   4041      1
  4161   4040   4052      1
  4162   4041   4053      1
  4163   4042   4054      1
  4164   4043   4047      1
  4165   4044   4045      1
  4166   4044   4055      1
  4167   4045   4046      1
  4168   4045   4056      1
  4169   4046   4048      1
  4170   4048   4057      1
  4171   4059   4060      1
  4172   4059   4063      1
  4173   4059   4064      1
  4174   4060   4061      1
  4175   4061   4062      1
  4176   4061   4065      1
  4177   4062   4063      1
  4178   4062   4066      1
  4179   4063   4067      1
  4180   4064   4068      1
  4181   4065   4069      1
  4182   4070   4071      1
  4183   4070   4074      1
  4184   4070   4075      1
  4185   4071   4072      1
  4186   4072   4073      1
  4187   4072   4076      1
  4188   4073   4074      1
  4189   4074   4078      1
  4190   4075   4079      1
  4191   4081   4082      1
  4192   4081   4088      1
  4193   4082   4083      1
  4194   4082   4117      1
  4195   4084   4094      1
  4196   4085   4086      1
  4197   4086   4087      1
  4198   4087   4090      1
  4199   4088   4089      1
  4200   4088   4119      1
  4201   4089   4120      1
  4202   4090   4098      1
  4203   4090   4121      1
  4204   4091   4109      1
  4205   4091   4122      1
  4206   4092   4110      1
  4207   4092   4125      1
  4208   4093   4101      1
  4209   4095   4099      1
  4210   4096   4097      1
  4211   4096   4127      1
  4212   4097   4128      1
  4213   4098   4099      1
  4214   4100   4104      1
  4215   4101   4102      1
  4216   4102   4129      1
  4217   4103   4104      1
  4218   4103   4130      1
  4219   4104   4116      1
  4220   4105   4106      1
  4221   4105   4109      1
  4222   4106   4107      1
  4223   4107   4108      1
  4224   4108   4109      1
  4225   4108   4132      1
  4226   4110   4114      1
  4227   4111   4112      1
  4228   4111   4133      1
  4229   4112   4134      1
  4230   4113   4114      1
  4231   4113   4185      1
  4232   4115   4135      1
  4233   4115   4136      1
  4234   4116   4137      1
  4235   4116   4138      1
  4236   4139   4140      1
  4237   4139   4149      1
  4238   4139   4152      1
  4239   4140   4141      1
  4240   4140   4175      1
  4241   4141   4176      1
  4242   4142   4147      1
  4243   4142   4150      1
  4244   4143   4144      1
  4245   4143   4147      1
  4246   4143   4151      1
  4247   4144   4145      1
  4248   4145   4146      1
  4249   4145   4148      1
  4250   4146   4147      1
  4251   4146   4177      1
  4252   4147   4178      1
  4253   4148   4156      1
  4254   4148   4179      1
  4255   4149   4167      1
  4256   4149   4180      1
  4257   4149   4181      1
  4258   4150   4168      1
  4259   4150   4183      1
  4260   4151   4159      1
  4261   4151   4184      1
  4262   4153   4157      1
  4263   4155   4156      1
  4264   4156   4157      1
  4265   4158   4159      1
  4266   4158   4162      1
  4267   4159   4160      1
  4268   4160   4161      1
  4269   4160   4187      1
  4270   4161   4162      1
  4271   4161   4188      1
  4272   4162   4174      1
  4273   4163   4164      1
  4274   4163   4167      1
  4275   4164   4165      1
  4276   4164   4173      1
  4277   4165   4166      1
  4278   4165   4189      1
  4279   4166   4167      1
  4280   4166   4190      1
  4281   4168   4169      1
  4282   4168   4172      1
  4283   4169   4170      1
  4284   4169   4191      1
  4285   4170   4171      1
  4286   4170   4192      1
  4287   4172   4616      1
  4288   4173   4193      1
  4289   4173   4194      1
  4290   4174   4195      1
  4291   4174   4196      1
  4292   4197   4198      1
  4293   4197   4204      1
  4294   4197   4207      1
  4295   4197   4210      1
  4296   4198   4233      1
  4297   4199   4200      1
  4298   4199   4234      1
  4299   4200   4208      1
  4300   4201   4202      1
  4301   4201   4205      1
  4302   4202   4203      1
  4303   4203   4204      1
  4304   4203   4206      1
  4305   4204   4205      1
  4306   4204   4235      1
  4307   4205   4236      1
  4308   4206   4214      1
  4309   4206   4237      1
  4310   4207   4225      1
  4311   4207   4238      1
  4312   4207   4239      1
  4313   4208   4226      1
  4314   4208   4241      1
  4315   4209   4217      1
  4316   4209   4242      1
  4317   4210   4311      1
  4318   4211   4212      1
  4319   4211   4215      1
  4320   4211   4232      1
  4321   4212   4213      1
  4322   4212   4243      1
  4323   4213   4214      1
  4324   4213   4244      1
  4325   4214   4215      1
  4326   4216   4217      1
  4327   4216   4240      1
  4328   4217   4218      1
  4329   4218   4219      1
  4330   4218   4245      1
  4331   4219   4220      1
  4332   4219   4246      1
  4333   4221   4225      1
  4334   4223   4224      1
  4335   4224   4225      1
  4336   4224   4248      1
  4337   4226   4227      1
  4338   4226   4230      1
  4339   4226   4290      1
  4340   4227   4249      1
  4341   4227   4290      1
  4342   4228   4229      1
  4343   4228   4269      1
  4344   4228   4290      1
  4345   4229   4230      1
  4346   4229   4231      1
  4347   4231   4251      1
  4348   4231   4252      1
  4349   4232   4253      1
  4350   4232   4254      1
  4351   4250   4268      1
  4352   4255   4256      1
  4353   4255   4262      1
  4354   4255   4265      1
  4355   4255   4268      1
  4356   4256   4291      1
  4357   4257   4258      1
  4358   4257   4292      1
  4359   4258   4263      1
  4360   4258   4266      1
  4361   4259   4260      1
  4362   4260   4261      1
  4363   4261   4262      1
  4364   4261   4264      1
  4365   4262   4293      1
  4366   4263   4294      1
  4367   4264   4272      1
  4368   4264   4295      1
  4369   4265   4296      1
  4370   4265   4297      1
  4371   4266   4284      1
  4372   4266   4298      1
  4373   4266   4299      1
  4374   4267   4275      1
  4375   4267   4300      1
  4376   4269   4270      1
  4377   4269   4273      1
  4378   4270   4271      1
  4379   4270   4301      1
  4380   4271   4272      1
  4381   4271   4302      1
  4382   4272   4273      1
  4383   4274   4275      1
  4384   4274   4278      1
  4385   4275   4276      1
  4386   4276   4277      1
  4387   4276   4303      1
  4388   4277   4278      1
  4389   4277   4304      1
  4390   4279   4280      1
  4391   4279   4283      1
  4392   4280   4281      1
  4393   4281   4282      1
  4394   4281   4305      1
  4395   4282   4283      1
  4396   4282   4306      1
  4397   4284   4285      1
  4398   4284   4288      1
  4399   4287   4288      1
  4400   4287   4289      1
  4401   4289   4310      1
  4402   4313   4314      1
  4403   4313   4319      1
  4404   4313   4326      1
  4405   4314   4315      1
  4406   4314   4332      1
  4407   4315   4316      1
  4408   4315   4333      1
  4409   4316   4317      1
  4410   4316   4318      1
  4411   4317   4320      1
  4412   4317   4334      1
  4413   4317   4335      1
  4414   4320   4321      1
  4415   4320   4324      1
  4416   4321   4322      1
  4417   4321   4336      1
  4418   4322   4323      1
  4419   4322   4337      1
  4420   4323   4324      1
  4421   4323   4325      1
  4422   4325   4338      1
  4423   4325   4339      1
  4424   4326   4330      1
  4425   4326   4340      1
  4426   4326   4341      1
  4427   4327   4328      1
  4428   4328   4329      1
  4429   4328   4342      1
  4430   4329   4330      1
  4431   4329   4343      1
  4432   4330   4331      1
  4433   4344   4345      1
  4434   4344   4350      1
  4435   4344   4357      1
  4436   4345   4346      1
  4437   4345   4363      1
  4438   4346   4347      1
  4439   4346   4364      1
  4440   4347   4348      1
  4441   4347   4349      1
  4442   4348   4351      1
  4443   4348   4365      1
  4444   4348   4366      1
  4445   4351   4352      1
  4446   4351   4355      1
  4447   4352   4353      1
  4448   4352   4367      1
  4449   4354   4356      1
  4450   4356   4369      1
  4451   4356   4370      1
  4452   4357   4361      1
  4453   4357   4371      1
  4454   4357   4372      1
  4455   4358   4359      1
  4456   4359   4360      1
  4457   4359   4373      1
  4458   4360   4361      1
  4459   4360   4374      1
  4460   4361   4362      1
  4461   4375   4379      1
  4462   4375   4380      1
  4463   4376   4377      1
  4464   4377   4386      1
  4465   4378   4379      1
  4466   4379   4394      1
  4467   4380   4387      1
  4468   4380   4395      1
  4469   4381   4382      1
  4470   4381   4385      1
  4471   4381   4386      1
  4472   4382   4383      1
  4473   4383   4384      1
  4474   4384   4385      1
  4475   4384   4396      1
  4476   4385   4397      1
  4477   4386   4398      1
  4478   4387   4388      1
  4479   4387   4391      1
  4480   4388   4389      1
  4481   4388   4399      1
  4482   4389   4390      1
  4483   4389   4400      1
  4484   4390   4392      1
  4485   4392   4401      1
  4486   4392   4402      1
  4487   4403   4404      1
  4488   4403   4407      1
  4489   4403   4408      1
  4490   4404   4405      1
  4491   4405   4406      1
  4492   4405   4414      1
  4493   4406   4407      1
  4494   4406   4421      1
  4495   4407   4422      1
  4496   4408   4415      1
  4497   4409   4410      1
  4498   4409   4413      1
  4499   4409   4414      1
  4500   4410   4706      1
  4501   4411   4412      1
  4502   4412   4424      1
  4503   4413   4425      1
  4504   4414   4426      1
  4505   4415   4416      1
  4506   4415   4419      1
  4507   4416   4417      1
  4508   4417   4418      1
  4509   4417   4428      1
  4510   4418   4419      1
  4511   4418   4420      1
  4512   4420   4429      1
  4513   4420   4430      1
  4514   4431   4432      1
  4515   4431   4435      1
  4516   4431   4436      1
  4517   4432   4433      1
  4518   4433   4434      1
  4519   4433   4437      1
  4520   4434   4435      1
  4521   4434   4438      1
  4522   4435   4439      1
  4523   4436   4440      1
  4524   4437   4441      1
  4525   4442   4447      1
  4526   4443   4444      1
  4527   4444   4445      1
  4528   4444   4448      1
  4529   4445   4446      1
  4530   4445   4449      1
  4531   4447   4451      1
  4532   4448   4452      1
  4533   4448   4547      1
  4534   4453   4454      1
  4535   4453   4457      1
  4536   4453   4458      1
  4537   4454   4455      1
  4538   4455   4456      1
  4539   4455   4459      1
  4540   4456   4457      1
  4541   4456   4460      1
  4542   4457   4461      1
  4543   4458   4462      1
  4544   4459   4463      1
  4545   4464   4465      1
  4546   4464   4468      1
  4547   4464   4469      1
  4548   4465   4466      1
  4549   4466   4467      1
  4550   4466   4470      1
  4551   4467   4468      1
  4552   4467   4471      1
  4553   4468   4472      1
  4554   4469   4473      1
  4555   4470   4474      1
  4556   4475   4476      1
  4557   4475   4482      1
  4558   4475   4485      1
  4559   4475   4488      1
  4560   4476   4477      1
  4561   4476   4511      1
  4562   4477   4478      1
  4563   4477   4512      1
  4564   4478   4483      1
  4565   4478   4486      1
  4566   4478   4488      1
  4567   4479   4480      1
  4568   4479   4483      1
  4569   4479   4487      1
  4570   4480   4481      1
  4571   4481   4482      1
  4572   4481   4484      1
  4573   4482   4483      1
  4574   4482   4513      1
  4575   4483   4514      1
  4576   4484   4492      1
  4577   4484   4515      1
  4578   4485   4503      1
  4579   4485   4516      1
  4580   4485   4517      1
  4581   4486   4504      1
  4582   4486   4518      1
  4583   4486   4519      1
  4584   4487   4495      1
  4585   4487   4520      1
  4586   4489   4490      1
  4587   4490   4491      1
  4588   4490   4521      1
  4589   4491   4492      1
  4590   4491   4522      1
  4591   4492   4493      1
  4592   4494   4495      1
  4593   4494   4498      1
  4594   4495   4496      1
  4595   4496   4497      1
  4596   4496   4523      1
  4597   4497   4498      1
  4598   4497   4524      1
  4599   4498   4510      1
  4600   4499   4500      1
  4601   4499   4503      1
  4602   4500   4501      1
  4603   4500   4509      1
  4604   4501   4502      1
  4605   4501   4525      1
  4606   4502   4503      1
  4607   4502   4526      1
  4608   4504   4505      1
  4609   4504   4508      1
  4610   4505   4506      1
  4611   4505   4527      1
  4612   4506   4507      1
  4613   4506   4528      1
  4614   4507   4508      1
  4615   4507   4548      1
  4616   4507   4579      1
  4617   4510   4531      1
  4618   4510   4532      1
  4619   4533   4534      1
  4620   4533   4540      1
  4621   4533   4543      1
  4622   4533   4546      1
  4623   4534   4535      1
  4624   4534   4569      1
  4625   4535   4536      1
  4626   4535   4570      1
  4627   4536   4541      1
  4628   4536   4544      1
  4629   4536   4546      1
  4630   4537   4538      1
  4631   4537   4541      1
  4632   4537   4545      1
  4633   4538   4539      1
  4634   4539   4540      1
  4635   4539   4542      1
  4636   4540   4541      1
  4637   4540   4571      1
  4638   4541   4572      1
  4639   4542   4550      1
  4640   4542   4573      1
  4641   4543   4561      1
  4642   4543   4574      1
  4643   4543   4575      1
  4644   4544   4562      1
  4645   4544   4576      1
  4646   4544   4577      1
  4647   4545   4553      1
  4648   4545   4578      1
  4649   4547   4548      1
  4650   4548   4549      1
  4651   4549   4550      1
  4652   4549   4580      1
  4653   4550   4551      1
  4654   4552   4553      1
  4655   4552   4556      1
  4656   4554   4555      1
  4657   4554   4581      1
  4658   4555   4582      1
  4659   4556   4568      1
  4660   4557   4558      1
  4661   4557   4561      1
  4662   4558   4559      1
  4663   4558   4567      1
  4664   4559   4560      1
  4665   4559   4583      1
  4666   4560   4561      1
  4667   4560   4584      1
  4668   4562   4563      1
  4669   4562   4566      1
  4670   4563   4564      1
  4671   4563   4585      1
  4672   4564   4565      1
  4673   4564   4586      1
  4674   4567   4587      1
  4675   4567   4588      1
  4676   4568   4589      1
  4677   4568   4590      1
  4678   4591   4592      1
  4679   4591   4598      1
  4680   4591   4601      1
  4681   4591   4604      1
  4682   4592   4593      1
  4683   4592   4627      1
  4684   4593   4594      1
  4685   4593   4628      1
  4686   4594   4599      1
  4687   4594   4602      1
  4688   4595   4596      1
  4689   4595   4599      1
  4690   4595   4603      1
  4691   4596   4597      1
  4692   4597   4598      1
  4693   4597   4600      1
  4694   4598   4599      1
  4695   4598   4629      1
  4696   4599   4630      1
  4697   4600   4608      1
  4698   4600   4631      1
  4699   4601   4619      1
  4700   4601   4632      1
  4701   4601   4633      1
  4702   4602   4620      1
  4703   4602   4635      1
  4704   4603   4611      1
  4705   4603   4636      1
  4706   4604   4705      1
  4707   4605   4606      1
  4708   4605   4609      1
  4709   4605   4626      1
  4710   4606   4607      1
  4711   4606   4637      1
  4712   4607   4608      1
  4713   4607   4638      1
  4714   4608   4609      1
  4715   4610   4611      1
  4716   4610   4634      1
  4717   4611   4612      1
  4718   4612   4613      1
  4719   4612   4639      1
  4720   4613   4614      1
  4721   4613   4640      1
  4722   4615   4619      1
  4723   4617   4618      1
  4724   4617   4641      1
  4725   4618   4619      1
  4726   4618   4642      1
  4727   4620   4621      1
  4728   4620   4684      1
  4729   4621   4643      1
  4730   4621   4684      1
  4731   4622   4623      1
  4732   4622   4663      1
  4733   4622   4684      1
  4734   4623   4624      1
  4735   4623   4625      1
  4736   4624   4625      1
  4737   4625   4645      1
  4738   4625   4646      1
  4739   4626   4647      1
  4740   4626   4648      1
  4741   4644   4662      1
  4742   4649   4650      1
  4743   4649   4656      1
  4744   4649   4659      1
  4745   4649   4662      1
  4746   4650   4651      1
  4747   4650   4685      1
  4748   4651   4652      1
  4749   4651   4686      1
  4750   4652   4657      1
  4751   4652   4660      1
  4752   4653   4654      1
  4753   4653   4657      1
  4754   4653   4661      1
  4755   4654   4655      1
  4756   4655   4656      1
  4757   4655   4658      1
  4758   4656   4657      1
  4759   4656   4687      1
  4760   4657   4688      1
  4761   4658   4666      1
  4762   4658   4689      1
  4763   4659   4677      1
  4764   4659   4690      1
  4765   4659   4691      1
  4766   4660   4678      1
  4767   4660   4692      1
  4768   4660   4693      1
  4769   4661   4669      1
  4770   4661   4694      1
  4771   4663   4664      1
  4772   4663   4667      1
  4773   4664   4665      1
  4774   4664   4695      1
  4775   4665   4666      1
  4776   4665   4696      1
  4777   4666   4667      1
  4778   4668   4669      1
  4779   4668   4672      1
  4780   4669   4670      1
  4781   4670   4671      1
  4782   4670   4697      1
  4783   4671   4672      1
  4784   4671   4698      1
  4785   4673   4677      1
  4786   4674   4675      1
  4787   4675   4676      1
  4788   4675   4699      1
  4789   4678   4679      1
  4790   4678   4682      1
  4791   4679   4680      1
  4792   4679   4701      1
  4793   4680   4681      1
  4794   4681   4682      1
  4795   4681   4683      1
  4796   4683   4704      1
  4797   4707   4708     du
  4798   4708   4709     du
  4799   4709   4710     du
  4800   4710   4707     du
  4801   4711   4712     du
  4802   4712   4713     du
  4803   4713   4714     du
  4804   4714   4711     du
  4805   4710   4714     du
  4806   4711   4707     du
  4807   4709   4713     du
  4808   4712   4708     du
