@<TRIPOS>MOLECULE
LAMMPS data file via write_data, version 29 Oct 2020, timestep = 1000 > lmp2SYBYLmol2 v3.4 / 25 September 2024 w/remove_PBC_bonds=True comments={'Sp1-C': 1, 'Sp2-C': 2, 'Sp3-C': 3, 'all-H': 4, 'Sp2-O': 5, 'Sp3-O': 6}
  4571 4685    0    0    0
SMALL
NO_CHARGES
****
Energy = 0

@<TRIPOS>ATOM
      1 C           17.5360   -13.6977    -6.9559 C       2   Sp2-C     0.1799
      2 C           18.5016   -12.7541    -7.5492 C       2   Sp2-C    -0.0017
      3 C          -17.5210   -12.7409    -7.6106 C       2   Sp2-C    -0.0069
      4 C          -16.5870   -13.5076    -6.7067 C       2   Sp2-C     0.2028
      5 C          -15.1353   -12.9863    -6.9422 C       3   Sp3-C    -0.0205
      6 O          -16.9198   -14.3797    -6.0153 O       5   Sp2-O    -0.4781
      7 O           16.4186   -13.4217    -6.7094 O       5   Sp2-O    -0.5014
      8 C          -14.8723   -11.7462    -6.0485 C       2   Sp2-C     0.1275
      9 C          -13.6376   -11.1801    -6.2662 C       2   Sp2-C    -0.0330
     10 C          -13.5646   -10.1194    -5.3707 C       2   Sp2-C    -0.0212
     11 C          -14.7916   -10.0660    -4.5940 C       2   Sp2-C     0.0798
     12 O          -15.7713   -11.2519    -5.1502 O       5   Sp2-O    -0.4784
     13 C          -15.0822    -9.1890    -3.6894 C       2   Sp2-C    -0.0204
     14 C           17.8981   -15.1862    -6.6577 C       3   Sp3-C     0.0392
     15 C           13.5073   -16.8186    -7.8866 C       2   Sp2-C     0.1437
     16 C           14.8749   -16.9550    -8.0107 C       2   Sp2-C    -0.0161
     17 C           15.7787   -15.8996    -7.6039 C       2   Sp2-C    -0.0062
     18 C           17.0918   -16.1821    -7.4436 C       2   Sp2-C     0.1593
     19 O           17.7656   -17.3042    -7.7153 O       6   Sp3-O    -0.5081
     20 H           17.9925   -11.9978    -8.1781 H       4   all-H     0.0669
     21 H          -16.9103   -12.0449    -8.1637 H       4   all-H     0.0463
     22 H          -14.4658   -13.8390    -6.7235 H       4   all-H     0.0515
     23 H          -14.7873   -12.7792    -7.9574 H       4   all-H     0.0324
     24 H          -12.9230   -11.4413    -6.9680 H       4   all-H     0.0516
     25 H          -12.7090    -9.4591    -5.3024 H       4   all-H     0.0735
     26 H          -14.3863    -8.4831    -3.3662 H       4   all-H     0.0902
     27 H          -16.0159    -9.3392    -3.1500 H       4   all-H     0.0739
     28 H          -18.4067   -15.5349    -6.9678 H       4   all-H     0.1462
     29 H           17.8056   -15.3939    -5.5661 H       4   all-H     0.1079
     30 H           15.3906   -17.8654    -8.4370 H       4   all-H     0.0802
     31 H           15.3560   -14.9497    -7.2969 H       4   all-H     0.1087
     32 C           -5.3645   -17.6084     6.6032 C       2   Sp2-C     0.1747
     33 C           -5.8811   -16.6278     5.6596 C       2   Sp2-C    -0.0132
     34 C           -6.4940   -15.4687     5.9568 C       2   Sp2-C    -0.0171
     35 C           -6.8724   -14.9981     7.2760 C       2   Sp2-C     0.1823
     36 C           -7.5912   -13.5900     7.2285 C       3   Sp3-C    -0.0146
     37 O           -6.6534   -15.5582     8.2870 O       5   Sp2-O    -0.4807
     38 O           -5.1817   -18.6947     6.2524 O       5   Sp2-O    -0.5128
     39 C           -8.3887   -13.3174     5.8936 C       2   Sp2-C     0.1302
     40 C           -9.7656   -13.3075     6.1013 C       2   Sp2-C    -0.0382
     41 C          -10.2596   -12.9858     4.8677 C       2   Sp2-C    -0.0212
     42 C           -9.1739   -12.6885     3.9590 C       2   Sp2-C     0.0991
     43 O           -7.7840   -13.0828     4.7093 O       5   Sp2-O    -0.4678
     44 C           -9.3810   -12.3048     2.7817 C       2   Sp2-C    -0.0179
     45 C           -4.8331   -17.1753     8.0715 C       3   Sp3-C     0.0268
     46 C           -1.0325    18.2759     8.0014 C       1   Sp1-C     0.1257
     47 C           -2.1363    18.2165     8.7161 C       2   Sp2-C    -0.0102
     48 C           -3.4391   -19.0396     8.3189 C       2   Sp2-C     0.0053
     49 C           -3.6210   -17.8645     8.5695 C       2   Sp2-C     0.1261
     50 O           -2.6595   -16.9971     9.4784 O       6   Sp3-O    -0.4580
     51 H           -5.7834   -16.8863     4.5957 H       4   all-H     0.0608
     52 H           -6.9038   -14.7206     5.2515 H       4   all-H     0.1094
     53 H           -8.2927   -13.3979     8.0815 H       4   all-H     0.0449
     54 H           -6.8355   -12.8545     7.3909 H       4   all-H     0.0646
     55 H          -10.2894   -13.5510     7.0086 H       4   all-H     0.0223
     56 H          -11.2805   -13.0505     4.6521 H       4   all-H     0.0496
     57 H          -10.4568   -12.1126     2.6142 H       4   all-H     0.1215
     58 H           -8.6658   -12.1139     1.9870 H       4   all-H     0.0698
     59 H           -4.7052   -16.0982     8.1109 H       4   all-H     0.1535
     60 H           -5.7731   -17.3994     8.6410 H       4   all-H     0.0974
     61 H           -2.1158    17.4576     9.4508 H       4   all-H     0.0708
     62 H           -4.1706    18.4933     7.7405 H       4   all-H     0.0922
     63 C          -11.3688    -6.1029    -3.3966 C       2   Sp2-C     0.1533
     64 O          -12.4095    -5.2579    -3.8197 O       5   Sp2-O    -0.4497
     65 C          -11.7856    -3.9447    -3.4001 C       2   Sp2-C     0.1342
     66 C          -10.5351    -4.0450    -2.7449 C       2   Sp2-C    -0.0400
     67 C          -10.3018    -5.4125    -2.7268 C       2   Sp2-C    -0.0124
     68 C          -11.3940    -7.4905    -3.6584 C       2   Sp2-C     0.0144
     69 C          -11.7738    -1.4338    -3.4829 C       2   Sp2-C     0.1293
     70 O          -12.6458    -0.3460    -3.3403 O       5   Sp2-O    -0.4740
     71 C          -11.4802     0.6532    -2.8311 C       2   Sp2-C     0.0992
     72 C          -10.2263     0.0213    -2.9817 C       2   Sp2-C    -0.0227
     73 C          -10.3890    -1.3131    -3.3509 C       2   Sp2-C    -0.0357
     74 C          -12.3859    -2.7209    -3.7057 C       2   Sp2-C     0.0428
     75 C          -10.3260    -8.3629    -3.2819 C       2   Sp2-C     0.1338
     76 C          -10.5700    -9.7562    -3.5072 C       2   Sp2-C    -0.0372
     77 C           -9.5174   -10.5555    -2.9826 C       2   Sp2-C    -0.0451
     78 C           -8.7064    -9.5195    -2.4773 C       2   Sp2-C     0.0870
     79 O           -9.1784    -7.9650    -2.6931 O       5   Sp2-O    -0.4737
     80 C           -7.6445    -9.9883    -1.9789 C       2   Sp2-C    -0.0386
     81 H           -9.9526    -3.2847    -2.3704 H       4   all-H     0.0275
     82 H           -9.3880    -5.8477    -2.2698 H       4   all-H     0.0811
     83 H          -12.2607    -7.9067    -4.1768 H       4   all-H     0.0692
     84 H           -9.2366     0.4133    -2.7272 H       4   all-H     0.0810
     85 H           -9.6068    -2.0185    -3.5670 H       4   all-H     0.0325
     86 H          -13.3168    -2.6987    -4.2880 H       4   all-H     0.1493
     87 H          -11.4647   -10.0720    -3.9411 H       4   all-H     0.0272
     88 H           -9.3624   -11.6074    -3.0682 H       4   all-H     0.0383
     89 H           -7.4404   -11.0468    -1.9905 H       4   all-H     0.0494
     90 H           -6.8494    -9.3200    -1.6475 H       4   all-H     0.0712
     91 C           17.5569    -1.5104    -8.3468 C       2   Sp2-C     0.1563
     92 O           18.2001    -0.4133    -8.8510 O       5   Sp2-O    -0.4836
     93 C          -17.7135    -0.7258    -8.2383 C       2   Sp2-C     0.0980
     94 C          -17.6666    -1.8588    -7.4910 C       2   Sp2-C    -0.0351
     95 C           18.3367    -2.2876    -7.4194 C       2   Sp2-C     0.0035
     96 C           16.1560    -1.8072    -8.5447 C       2   Sp2-C     0.0143
     97 C          -15.4060     0.2403    -7.8630 C       2   Sp2-C     0.1192
     98 O          -14.3700     1.0400    -8.2936 O       5   Sp2-O    -0.4668
     99 C          -13.3332     0.5215    -7.1367 C       2   Sp2-C     0.0877
    100 C          -13.9423    -0.2674    -6.1751 C       2   Sp2-C    -0.0230
    101 C          -15.2557    -0.5077    -6.6717 C       2   Sp2-C    -0.0295
    102 C          -16.6183     0.1569    -8.5271 C       2   Sp2-C     0.0030
    103 C           15.5018    -2.8253    -7.8743 C       2   Sp2-C     0.1379
    104 C           14.0972    -2.9912    -8.1858 C       2   Sp2-C    -0.0304
    105 C           13.4964    -3.9700    -7.3576 C       2   Sp2-C    -0.0273
    106 C           14.6425    -4.3648    -6.6245 C       2   Sp2-C     0.1091
    107 O           16.0512    -3.7232    -6.9519 O       5   Sp2-O    -0.4615
    108 C           14.2418    -5.2107    -5.7267 C       2   Sp2-C    -0.0444
    109 H          -16.8845    -2.3554    -6.9539 H       4   all-H     0.0453
    110 H           18.0083    -3.1556    -6.8613 H       4   all-H     0.1036
    111 H           15.5927    -1.2561    -9.2409 H       4   all-H     0.0495
    112 H          -13.4377    -0.6706    -5.2903 H       4   all-H     0.0997
    113 H          -15.9701    -1.0988    -6.1554 H       4   all-H     0.0625
    114 H          -16.8595     0.8254    -9.3544 H       4   all-H     0.0900
    115 H           13.5983    -2.4317    -8.9581 H       4   all-H     0.0407
    116 H           12.4790    -4.2827    -7.2062 H       4   all-H     0.0983
    117 H           13.2017    -5.5123    -5.6360 H       4   all-H     0.0333
    118 H           14.9312    -5.6262    -4.9908 H       4   all-H     0.0746
    119 C           13.2065   -12.2550    12.8121 C       1   Sp1-C    -0.0014
    120 O           14.6246   -10.5915    10.8964 O       6   Sp3-O    -0.4594
    121 C           14.7024    -9.8601    12.0294 C       2   Sp2-C     0.1536
    122 C           14.3456   -10.0885    13.3319 C       2   Sp2-C    -0.0245
    123 C           13.6789   -11.2839    13.7321 C       2   Sp2-C    -0.0315
    124 C           12.8691   -13.1902    11.8791 C       1   Sp1-C    -0.0271
    125 C           15.4343    -8.6244    12.1264 C       2   Sp2-C    -0.0097
    126 H           14.5257    -9.4369    14.2102 H       4   all-H     0.0405
    127 H           13.3610   -11.3492    14.7456 H       4   all-H     0.0624
    128 H           12.1701   -13.6432    11.1590 H       4   all-H     0.0591
    129 H           15.5248    -8.0676    13.0330 H       4   all-H     0.0520
    130 C          -17.7927   -10.0842    11.5362 C       2   Sp2-C     0.1667
    131 O          -16.3434    -9.7644    11.3364 O       5   Sp2-O    -0.4540
    132 C          -16.1813    -9.2356    12.6778 C       2   Sp2-C     0.1168
    133 C          -17.4055    -9.3375    13.5002 C       2   Sp2-C    -0.0277
    134 C          -18.4445    -9.8979    12.8749 C       2   Sp2-C    -0.0320
    135 C           18.6250   -10.4962    10.7675 C       2   Sp2-C     0.1670
    136 C          -15.0237    -8.7138    13.1780 C       1   Sp1-C    -0.0168
    137 H          -17.4316    -8.9420    14.5283 H       4   all-H     0.0980
    138 H           17.9115   -10.1456    13.3004 H       4   all-H     0.0594
    139 H           17.5931   -10.6327    11.1161 H       4   all-H     0.0884
    140 H          -14.3961    -8.2702    13.9160 H       4   all-H     0.0584
    141 C          -13.7310   -11.5120   -18.7467 C       2   Sp2-C     0.1065
    142 O          -13.6916   -10.8605    18.2943 O       6   Sp3-O    -0.4478
    143 C          -14.0580   -12.3685    17.7372 C       2   Sp2-C     0.1174
    144 C          -14.2126   -13.5078    18.6747 C       2   Sp2-C    -0.0005
    145 C          -13.9406   -12.9567   -18.6425 C       2   Sp2-C    -0.0023
    146 C          -13.5246   -10.9007   -17.6008 C       1   Sp1-C    -0.0174
    147 C          -14.1644   -12.7484    16.4965 C       1   Sp1-C     0.0191
    148 H          -14.3843   -14.5465    18.3421 H       4   all-H     0.1515
    149 H          -13.8793   -13.5414   -17.7370 H       4   all-H     0.1110
    150 H          -13.3477   -10.6033   -16.6223 H       4   all-H     0.0437
    151 H          -14.2322   -13.1727    15.5350 H       4   all-H     0.0767
    152 C          -12.9553    -2.7657   -16.3994 C       3   Sp3-C     0.0656
    153 C          -13.9522    -3.7040   -15.9026 C       2   Sp2-C    -0.0393
    154 C          -13.3184    -4.2359   -14.8929 C       2   Sp2-C    -0.0216
    155 C          -11.8181    -3.7726   -14.9112 C       3   Sp3-C     0.1447
    156 C           -9.6863    -4.1625   -16.5119 C       2   Sp2-C     0.1491
    157 O           -9.5410    -2.9754   -17.3241 O       5   Sp2-O    -0.4568
    158 C          -10.8031    -2.9583   -17.9992 C       2   Sp2-C     0.1353
    159 C          -11.9577    -3.7242   -17.3518 C       3   Sp3-C    -0.0164
    160 C          -11.1391    -4.4654   -16.1847 C       3   Sp3-C     0.0195
    161 C          -10.9882    -2.1699   -19.0351 C       2   Sp2-C     0.0191
    162 C          -13.4908    -1.6217   -17.2841 C       3   Sp3-C    -0.0137
    163 C          -11.0916    -4.3315   -13.6726 C       3   Sp3-C     0.0074
    164 C           -8.6782    -4.8771   -16.0088 C       2   Sp2-C     0.0119
    165 O          -11.8289    -2.4214   -15.1504 O       5   Sp2-O    -0.4483
    166 C          -14.8705    -2.3920    17.4991 C       1   Sp1-C     0.0134
    167 C          -14.0285    -3.4688    17.8749 C       2   Sp2-C    -0.0361
    168 C          -12.8138    -3.2921    18.5839 C       2   Sp2-C    -0.0215
    169 C          -12.1187    -2.1298    18.6743 C       2   Sp2-C     0.1311
    170 O          -12.3225    -0.9711    17.9181 O       6   Sp3-O    -0.4718
    171 O          -10.0945    -6.6595   -15.0627 O       5   Sp2-O    -0.5154
    172 C           -8.7561    -6.1009   -15.2497 C       2   Sp2-C     0.1123
    173 C           -7.6453    -6.6602   -14.6677 C       2   Sp2-C    -0.0125
    174 C           -8.1290    -7.8061   -14.0591 C       2   Sp2-C    -0.0148
    175 C           -9.5903    -7.8537   -14.2651 C       2   Sp2-C     0.1065
    176 O          -14.9611     0.4435   -17.0530 O       5   Sp2-O    -0.4687
    177 C          -15.1652     1.3287   -15.7471 C       2   Sp2-C     0.1044
    178 C          -14.4676     0.7049   -14.6424 C       2   Sp2-C    -0.0152
    179 C          -13.8883    -0.4577   -15.1331 C       2   Sp2-C     0.0052
    180 C          -14.2052    -0.5348   -16.4429 C       2   Sp2-C     0.1453
    181 C          -12.0357    -4.2839   -12.4821 C       2   Sp2-C     0.1521
    182 C          -12.8795    -5.4176   -12.2891 C       2   Sp2-C    -0.0315
    183 C          -13.8523    -5.0073   -11.4826 C       2   Sp2-C    -0.0413
    184 C          -13.6951    -3.5737   -11.0559 C       3   Sp3-C     0.0586
    185 O          -12.3003    -3.1422   -11.9523 O       5   Sp2-O    -0.4432
    186 C          -15.8662     2.4411   -15.6810 C       2   Sp2-C    -0.0130
    187 C          -10.1899    -8.8570   -13.7787 C       2   Sp2-C    -0.0522
    188 H          -14.9847    -3.9057   -16.2026 H       4   all-H     0.0953
    189 H          -13.6487    -5.0298   -14.2549 H       4   all-H     0.0436
    190 H          -12.6106    -4.3186   -17.9435 H       4   all-H     0.0324
    191 H          -11.2154    -5.5480   -16.1618 H       4   all-H     0.0888
    192 H          -10.1007    -1.5809   -19.1315 H       4   all-H     0.1034
    193 H          -12.6598    -1.2048   -17.7886 H       4   all-H     0.0986
    194 H          -14.0517    -1.8838   -18.1833 H       4   all-H     0.0558
    195 H          -10.7150    -5.3950   -13.9240 H       4   all-H     0.1026
    196 H          -10.1795    -3.7466   -13.3894 H       4   all-H     0.1270
    197 H           -7.7594    -4.4346   -16.3636 H       4   all-H     0.0864
    198 H          -14.4233    -4.3946    17.7073 H       4   all-H     0.0466
    199 H          -12.2702    -4.0149    19.0864 H       4   all-H     0.0637
    200 H           -6.6351    -6.3177   -14.5516 H       4   all-H     0.1059
    201 H           -7.6175    -8.4542   -13.3305 H       4   all-H     0.0918
    202 H          -14.4848     1.0919   -13.6461 H       4   all-H     0.0518
    203 H          -13.2549    -1.1697   -14.5631 H       4   all-H     0.1235
    204 H          -12.7863    -6.4142   -12.6819 H       4   all-H     0.0568
    205 H          -14.6435    -5.5991   -11.1094 H       4   all-H     0.0442
    206 H          -15.8393     2.9560   -14.7440 H       4   all-H     0.0601
    207 H          -16.4552     2.7333   -16.5329 H       4   all-H     0.0959
    208 H           -9.7033    -9.6880   -13.3348 H       4   all-H     0.0516
    209 H          -11.2026    -9.0466   -13.9029 H       4   all-H     0.0443
    210 C          -18.3227    -4.5033   -13.5499 C       3   Sp3-C     0.0921
    211 C          -17.6689    -5.8262   -13.6121 C       2   Sp2-C    -0.0112
    212 C           18.5914    -6.5846   -13.5826 C       2   Sp2-C    -0.0084
    213 C           17.3022    -5.7539   -13.4740 C       3   Sp3-C     0.1050
    214 C           16.3926    -4.5692   -11.1870 C       2   Sp2-C     0.1537
    215 O           16.7019    -3.2230   -11.0443 O       5   Sp2-O    -0.5061
    216 C           18.0481    -3.1235   -11.5594 C       2   Sp2-C     0.1204
    217 C          -18.6492    -4.4146   -12.0491 C       3   Sp3-C    -0.0115
    218 C           17.4069    -5.3946   -11.9297 C       3   Sp3-C     0.0182
    219 C          -18.5334    -2.0176   -11.5296 C       2   Sp2-C     0.0050
    220 C          -17.2607    -3.3937   -14.1204 C       3   Sp3-C    -0.0212
    221 C           16.0518    -6.4968   -13.8176 C       3   Sp3-C     0.0027
    222 C           15.2543    -5.1063   -10.6375 C       2   Sp2-C     0.0150
    223 O           17.5186    -4.5417   -14.2534 O       5   Sp2-O    -0.5074
    224 C          -14.9351    -1.5379   -12.2238 C       2   Sp2-C     0.1213
    225 C          -14.8906    -2.7380   -11.4534 C       2   Sp2-C    -0.0003
    226 C          -16.2865    -2.9124   -11.1648 C       2   Sp2-C    -0.0409
    227 C          -17.0685    -1.9496   -11.7633 C       2   Sp2-C     0.1266
    228 O          -16.4564    -0.9744   -12.5035 O       5   Sp2-O    -0.4740
    229 O           15.7146    -7.5557   -11.0745 O       5   Sp2-O    -0.4905
    230 C           14.9207    -6.5025   -10.6390 C       2   Sp2-C     0.1383
    231 C           13.7517    -6.8283    -9.9268 C       2   Sp2-C    -0.0243
    232 C           13.4636    -8.2053    -9.9549 C       2   Sp2-C    -0.0490
    233 C           14.6278    -8.6328   -10.6968 C       2   Sp2-C     0.0927
    234 O          -16.8617    -4.5614   -16.3514 O       5   Sp2-O    -0.4664
    235 C          -16.5985    -3.8153   -17.7690 C       2   Sp2-C     0.0899
    236 C          -16.8803    -2.4065   -17.5940 C       2   Sp2-C    -0.0108
    237 C          -17.1789    -2.1743   -16.2625 C       2   Sp2-C    -0.0156
    238 C          -17.0691    -3.4057   -15.6493 C       2   Sp2-C     0.1342
    239 C           14.8314    -5.4957   -14.0578 C       2   Sp2-C     0.1887
    240 C           15.0677    -4.0807   -13.9688 C       2   Sp2-C    -0.0000
    241 C           14.0382    -3.1687   -14.1804 C       2   Sp2-C    -0.0293
    242 C           12.7987    -3.6737   -14.6285 C       2   Sp2-C     0.1277
    243 O           13.8525    -6.1181   -14.2676 O       5   Sp2-O    -0.4889
    244 C          -16.2605    -4.3573   -18.8992 C       2   Sp2-C    -0.0296
    245 C           14.5980    -9.8879   -10.8167 C       2   Sp2-C    -0.0624
    246 H          -16.6172    -6.1150   -13.6442 H       4   all-H     0.0640
    247 H           18.5615    -7.6762   -13.5899 H       4   all-H     0.0995
    248 H          -17.8017    -4.6666   -11.4295 H       4   all-H     0.0291
    249 H           17.5012    -6.3055   -11.3117 H       4   all-H     0.0992
    250 H           18.1521    -1.2122   -11.2236 H       4   all-H     0.1010
    251 H          -17.5904    -2.4196   -13.8459 H       4   all-H     0.0778
    252 H          -16.3313    -3.4665   -13.5681 H       4   all-H     0.0478
    253 H           16.1675    -7.2044   -14.6051 H       4   all-H     0.0573
    254 H           15.7577    -7.2181   -12.9807 H       4   all-H     0.1141
    255 H           14.6576    -4.3176   -10.0914 H       4   all-H     0.0685
    256 H          -13.4577    -3.5541   -10.0024 H       4   all-H     0.0773
    257 H          -16.6458    -3.5957   -10.4326 H       4   all-H     0.0273
    258 H           13.1541    -6.1381    -9.3680 H       4   all-H     0.0415
    259 H           12.6538    -8.7433    -9.4735 H       4   all-H     0.0291
    260 H          -16.8283    -1.6432   -18.3696 H       4   all-H     0.0834
    261 H          -17.3514    -1.2246   -15.7814 H       4   all-H     0.0739
    262 H           15.9974    -3.7502   -13.5866 H       4   all-H     0.1260
    263 H           14.3966    -2.1895   -14.2812 H       4   all-H     0.0630
    264 H          -16.1953    -3.7943    18.7907 H       4   all-H     0.0801
    265 H          -16.1376    -5.3699   -18.9392 H       4   all-H     0.0741
    266 H           13.8558   -10.4555   -10.3653 H       4   all-H     0.0285
    267 H           15.3575   -10.4755   -11.2869 H       4   all-H     0.0405
    268 C          -10.1797     1.4190   -13.9019 C       3   Sp3-C     0.1133
    269 C          -11.3966     1.0653   -13.1192 C       2   Sp2-C    -0.0114
    270 C          -11.3340     0.0676   -12.1453 C       2   Sp2-C    -0.0165
    271 C          -10.1720    -0.7573   -12.2318 C       2   Sp2-C     0.0008
    272 C           -7.7780    -0.7866   -13.4599 C       2   Sp2-C     0.1299
    273 O           -7.3215     0.1945   -14.4330 O       5   Sp2-O    -0.4706
    274 C           -8.3855     0.3318   -15.3466 C       2   Sp2-C     0.1626
    275 C           -9.6960     0.1678   -14.6036 C       3   Sp3-C     0.0176
    276 C           -9.3138    -0.9294   -13.4494 C       3   Sp3-C     0.0022
    277 C           -8.2651     0.5630   -16.6745 C       2   Sp2-C     0.0247
    278 C          -10.5060     2.4050   -15.1132 C       3   Sp3-C    -0.0001
    279 C          -10.1582    -1.4338   -11.0235 C       2   Sp2-C     0.0028
    280 C           -7.0027    -1.5028   -12.5747 C       2   Sp2-C    -0.0003
    281 O           -9.0309     2.0250   -13.0460 O       6   Sp3-O    -0.5844
    282 C          -11.3184     1.1547   -18.5707 C       2   Sp2-C     0.1270
    283 C          -10.2394     1.2909    19.0720 C       2   Sp2-C    -0.0160
    284 C           -9.0530     1.0898   -18.8934 C       2   Sp2-C    -0.0268
    285 C           -9.3732     0.7750   -17.5910 C       2   Sp2-C     0.1223
    286 O          -10.8088     0.6968   -17.2680 O       5   Sp2-O    -0.4818
    287 O           -8.4799    -3.5291   -12.1398 O       6   Sp3-O    -0.5792
    288 C           -7.4421    -2.6514   -11.8382 C       2   Sp2-C     0.1229
    289 C           -6.5694    -2.7383   -10.8229 C       2   Sp2-C    -0.0368
    290 C           -6.6534    -3.8710    -9.8508 C       2   Sp2-C    -0.0350
    291 C           -7.6337    -4.8810    -9.9172 C       1   Sp1-C    -0.0099
    292 O          -11.8176     4.0018   -13.6003 O       5   Sp2-O    -0.4648
    293 C          -11.6761     5.6296   -13.5260 C       2   Sp2-C     0.1310
    294 C          -10.6422     6.0267   -14.3825 C       2   Sp2-C    -0.0218
    295 C          -10.0837     4.8358   -14.9770 C       2   Sp2-C    -0.0231
    296 C          -10.8294     3.8341   -14.5558 C       2   Sp2-C     0.1410
    297 C          -10.8687    -1.1436    -9.8175 C       3   Sp3-C    -0.0005
    298 C          -10.8615    -0.2385    -8.7886 C       3   Sp3-C    -0.0382
    299 C          -10.1630    -1.5711    -7.2445 C       2   Sp2-C     0.0185
    300 C           -9.2737    -0.4100    -6.6689 C       2   Sp2-C     0.0952
    301 O           -7.8116    -0.8552    -6.2523 O       6   Sp3-O    -0.4808
    302 C           -9.6851     0.6983    -6.4432 C       2   Sp2-C    -0.0276
    303 C          -12.5973     1.3914   -18.9262 C       2   Sp2-C    -0.0122
    304 H          -12.2714     1.6089   -13.2347 H       4   all-H     0.0730
    305 H          -12.1082    -0.0278   -11.3912 H       4   all-H     0.0791
    306 H          -10.4341    -0.3308   -15.2312 H       4   all-H     0.1236
    307 H           -9.2238    -1.9777   -13.8690 H       4   all-H     0.1088
    308 H           -7.2317     0.6311   -16.9784 H       4   all-H     0.0969
    309 H           -9.6796     2.4752   -15.8182 H       4   all-H     0.0678
    310 H          -11.4616     1.8967   -15.4586 H       4   all-H     0.0833
    311 H           -8.4816    -4.1261   -11.3101 H       4   all-H     0.2547
    312 H           -9.3545    -2.1445   -11.1466 H       4   all-H     0.1184
    313 H           -5.9601    -1.2427   -12.5674 H       4   all-H     0.0697
    314 H          -10.4300     1.6431    18.0089 H       4   all-H     0.0668
    315 H           -8.0717     1.1704    19.3024 H       4   all-H     0.0475
    316 H           -5.8178    -1.9875   -10.7242 H       4   all-H     0.0497
    317 H           -5.8383    -3.9262    -9.1444 H       4   all-H     0.0721
    318 H          -10.2906     7.0108   -14.5734 H       4   all-H     0.0470
    319 H           -9.2676     4.7760   -15.7487 H       4   all-H     0.0528
    320 H          -10.4504     0.7617    -8.5550 H       4   all-H     0.0543
    321 H          -14.2175    -7.7753    -6.5737 H       4   all-H     0.3198
    322 H          -10.7529     0.9350    -6.6119 H       4   all-H     0.0475
    323 H           -9.1248     1.4964    -6.0039 H       4   all-H     0.0859
    324 H          -12.7935     1.6679    18.6788 H       4   all-H     0.0540
    325 H          -13.3925     1.4167   -18.2306 H       4   all-H     0.1091
    326 C          -14.3822    -5.8617    -7.1717 C       3   Sp3-C     0.1069
    327 C          -15.5046    -5.5999    -8.1683 C       2   Sp2-C    -0.0520
    328 C          -15.9330    -6.5250    -9.0457 C       2   Sp2-C    -0.0369
    329 C          -15.0720    -7.6310    -8.9024 C       2   Sp2-C     0.0036
    330 C          -12.8184    -8.5700    -8.6084 C       2   Sp2-C     0.1492
    331 O          -12.2920    -8.4385    -7.3684 O       5   Sp2-O    -0.5069
    332 C          -12.0740    -7.0139    -7.2004 C       2   Sp2-C     0.1463
    333 C          -13.0745    -6.2048    -7.9931 C       3   Sp3-C    -0.0052
    334 C          -13.6088    -7.3686    -8.9849 C       3   Sp3-C    -0.0014
    335 C          -11.0378    -6.4471    -6.5973 C       2   Sp2-C     0.0204
    336 C          -14.1021    -4.5450    -6.4405 C       3   Sp3-C     0.0121
    337 C          -15.6684    -9.0501    -8.9842 C       3   Sp3-C    -0.0132
    338 C          -12.5881    -9.5992    -9.4743 C       2   Sp2-C     0.0007
    339 O          -14.7174    -7.0137    -6.3189 O       6   Sp3-O    -0.5673
    340 C          -10.2966    -2.8857    -6.8828 C       2   Sp2-C     0.1331
    341 C           -9.2939    -3.4326    -5.9709 C       2   Sp2-C    -0.0099
    342 C           -9.5268    -4.7775    -5.7662 C       2   Sp2-C    -0.0171
    343 C          -10.6389    -5.0484    -6.5940 C       2   Sp2-C     0.1451
    344 O          -11.2850    -4.0106    -7.3177 O       5   Sp2-O    -0.4788
    345 O          -13.9407    -8.7145   -11.3581 O       5   Sp2-O    -0.4737
    346 C          -13.0284    -9.6035   -10.8807 C       2   Sp2-C     0.1230
    347 C          -12.5773   -10.6325   -11.6869 C       2   Sp2-C    -0.0340
    348 C          -13.1767   -10.5928   -12.9869 C       2   Sp2-C    -0.0467
    349 C          -14.0222    -9.4476   -12.8398 C       2   Sp2-C     0.0934
    350 O          -15.1295    -3.3246    -4.7276 O       5   Sp2-O    -0.4645
    351 C          -17.5145    -3.8182    -3.7694 C       1   Sp1-C     0.1899
    352 C          -17.6095    -4.7085    -4.8380 C       2   Sp2-C    -0.0268
    353 C          -16.4772    -4.9572    -5.6767 C       2   Sp2-C     0.0002
    354 C          -15.3029    -4.2189    -5.5003 C       2   Sp2-C     0.1963
    355 C          -17.1555    -9.1020    -8.4622 C       2   Sp2-C     0.1425
    356 C          -17.3446    -9.5457    -7.1685 C       2   Sp2-C    -0.0153
    357 C           18.6122    -9.4314    -6.9812 C       2   Sp2-C    -0.0312
    358 C           17.9926    -8.9503    -8.1953 C       2   Sp2-C     0.0955
    359 O          -18.1318    -8.7239    -9.2778 O       5   Sp2-O    -0.4595
    360 C           16.7074    -8.8242    -8.3250 C       2   Sp2-C    -0.0372
    361 C          -11.0625    -1.5596    -8.3911 C       3   Sp3-C     0.0228
    362 H          -16.0023    -4.6697    -8.1250 H       4   all-H     0.0265
    363 H          -16.8457    -6.4776    -9.5963 H       4   all-H     0.0807
    364 H          -12.5353    -5.3525    -8.3873 H       4   all-H     0.0834
    365 H          -13.4740    -7.0907   -10.0724 H       4   all-H     0.0874
    366 H          -10.5021    -7.2356    -6.0488 H       4   all-H     0.0691
    367 H          -13.1554    -4.5942    -5.9188 H       4   all-H     0.1354
    368 H          -13.7844    -3.7196    -7.0988 H       4   all-H     0.0585
    369 H          -15.5605    -9.5711    -9.9357 H       4   all-H     0.0945
    370 H          -15.0955    -9.7478    -8.3871 H       4   all-H     0.0421
    371 H          -11.9444   -10.3961    -9.1736 H       4   all-H     0.0885
    372 H           -8.5125    -2.8808    -5.4152 H       4   all-H     0.0719
    373 H           -9.0160    -5.4525    -5.1691 H       4   all-H     0.0518
    374 H          -11.8904   -11.3730   -11.3833 H       4   all-H     0.0506
    375 H          -13.0832   -11.2688   -13.8051 H       4   all-H     0.0382
    376 H          -18.5417    -5.1895    -5.1134 H       4   all-H     0.0476
    377 H          -16.5337    -5.8027    -6.2888 H       4   all-H     0.0910
    378 H          -16.6027    -9.9691    -6.4805 H       4   all-H     0.1034
    379 H           18.1126    -9.7423    -6.0934 H       4   all-H     0.0428
    380 H           16.1608    -9.0986    -7.4210 H       4   all-H     0.0305
    381 H           16.2480    -8.5235    -9.2919 H       4   all-H     0.1171
    382 H           -8.3400     1.3871   -13.1087 H       4   all-H     0.3145
    383 H           -7.3200     0.3573    -4.2509 H       4   all-H     0.2806
    384 C           12.9354    17.3558    -8.7913 C       2   Sp2-C     0.1875
    385 C           14.2881    17.7866    -9.2257 C       2   Sp2-C     0.0074
    386 C           14.5332    18.5767   -10.2920 C       2   Sp2-C     0.0016
    387 C           13.7369    19.0536   -11.3293 C       2   Sp2-C     0.1769
    388 C           14.3908   -18.0830   -12.3267 C       3   Sp3-C     0.0072
    389 O           12.5655    18.6591   -11.5783 O       6   Sp3-O    -0.4978
    390 O           12.8128    16.4227    -8.1031 O       5   Sp2-O    -0.4777
    391 C           13.8417   -16.6173   -12.3167 C       2   Sp2-C     0.1394
    392 C           12.5097   -16.5618   -12.3323 C       2   Sp2-C    -0.0074
    393 C           12.1435   -15.2395   -12.3809 C       2   Sp2-C    -0.0236
    394 C           13.3665   -14.4673   -12.4624 C       2   Sp2-C     0.1031
    395 O           14.5967   -15.4546   -12.3446 O       5   Sp2-O    -0.4862
    396 C           13.3567   -13.1583   -12.5665 C       2   Sp2-C    -0.0329
    397 C           11.7680    18.4234    -8.8371 C       3   Sp3-C     0.0102
    398 C           11.7981   -17.4116    -4.9365 C       1   Sp1-C     0.0256
    399 C           11.2606   -18.7019    -5.2000 C       2   Sp2-C    -0.0163
    400 C           11.4094    18.7389    -6.4458 C       2   Sp2-C    -0.0168
    401 C           11.7813   -18.8288    -7.6314 C       2   Sp2-C     0.1471
    402 O           12.2477   -17.6069    -7.8834 O       6   Sp3-O    -0.4677
    403 H           15.1597    17.3571    -8.7150 H       4   all-H     0.1307
    404 H           15.6100    18.8729   -10.3322 H       4   all-H     0.1057
    405 H           15.4891   -17.8741   -12.1300 H       4   all-H     0.1497
    406 H           14.3827   -18.5486   -13.3371 H       4   all-H     0.0765
    407 H           11.7836   -17.3703   -12.2459 H       4   all-H     0.0841
    408 H           11.1710   -14.7620   -12.3887 H       4   all-H     0.0773
    409 H           12.3963   -12.6627   -12.6496 H       4   all-H     0.0473
    410 H           14.2954   -12.5988   -12.6637 H       4   all-H     0.0681
    411 H           11.7037    18.9827    -9.7960 H       4   all-H     0.1208
    412 H           10.9184    17.7796    -8.7526 H       4   all-H     0.0508
    413 H           10.8282    19.0235    -4.3288 H       4   all-H     0.0861
    414 H           11.1476    17.7004    -6.5265 H       4   all-H     0.0550
    415 C           -0.2918   -18.1957     6.3326 C       2   Sp2-C     0.1614
    416 C           -1.4961   -17.7370     5.9519 C       2   Sp2-C    -0.0122
    417 C           -1.8238   -16.3997     5.5444 C       2   Sp2-C    -0.0430
    418 C           -1.4883   -15.2521     6.1824 C       2   Sp2-C     0.1477
    419 C           -2.2795   -14.0778     5.8607 C       3   Sp3-C    -0.0174
    420 O           -0.6385   -15.1403     7.2507 O       6   Sp3-O    -0.4839
    421 O           -0.0757    18.7264     6.9124 O       6   Sp3-O    -0.4915
    422 C           -3.1728   -13.5458     7.0312 C       2   Sp2-C     0.1464
    423 C           -3.8422   -12.4447     6.6918 C       2   Sp2-C    -0.0212
    424 C           -4.5477   -12.0463     7.8696 C       2   Sp2-C    -0.0118
    425 C           -4.2351   -13.0069     8.8896 C       2   Sp2-C     0.1152
    426 O           -3.3078   -14.1237     8.2933 O       5   Sp2-O    -0.4294
    427 C           -4.8076   -12.9293    10.0805 C       2   Sp2-C    -0.0166
    428 C            0.8592   -17.2405     6.1003 C       3   Sp3-C     0.0136
    429 C            3.0817   -18.7597     3.4791 C       2   Sp2-C     0.1260
    430 C            3.8446   -18.8583     4.6780 C       2   Sp2-C     0.0017
    431 C            3.0967   -18.2445     5.7290 C       2   Sp2-C    -0.0043
    432 C            1.9257   -17.9143     5.1970 C       2   Sp2-C     0.1454
    433 O            1.6609   -18.0416     3.8277 O       5   Sp2-O    -0.4960
    434 H           -2.3203   -18.4925     5.9232 H       4   all-H     0.0723
    435 H           -2.6931   -16.3809     4.9352 H       4   all-H     0.0224
    436 H           -1.6556   -13.2731     5.4948 H       4   all-H     0.0520
    437 H           -2.7603   -14.2088     4.8575 H       4   all-H     0.0128
    438 H           -3.8229   -11.9206     5.7403 H       4   all-H     0.0499
    439 H           -5.2007   -11.1914     7.9702 H       4   all-H     0.0767
    440 H           -5.6637   -12.2171    10.2040 H       4   all-H     0.1207
    441 H           -4.5480   -13.6161    10.8727 H       4   all-H     0.0691
    442 H            0.5268   -16.2844     5.7263 H       4   all-H     0.0751
    443 H            1.3393   -16.9517     7.0553 H       4   all-H     0.1312
    444 H            4.7661    18.7833     4.8461 H       4   all-H     0.0600
    445 H            3.4887   -17.9916     6.7189 H       4   all-H     0.0689
    446 C           -5.6977    18.5251    -8.2461 C       2   Sp2-C     0.1168
    447 O           -4.8506    18.6667    -6.9666 O       5   Sp2-O    -0.5050
    448 C           -3.6189    18.9197    -7.6812 C       2   Sp2-C     0.1144
    449 C           -3.7260    18.9313    -9.0844 C       2   Sp2-C    -0.0325
    450 C           -5.0998    18.7434    -9.4409 C       2   Sp2-C    -0.0156
    451 C           -7.1097    18.2959    -8.2070 C       2   Sp2-C     0.0073
    452 C           -1.1851   -18.5642    -7.5065 C       2   Sp2-C     0.0953
    453 O            0.0550   -18.4391    -6.5516 O       5   Sp2-O    -0.4774
    454 C            0.8984   -17.8944    -7.5365 C       2   Sp2-C     0.1456
    455 C            0.3013   -17.6870    -8.8405 C       2   Sp2-C     0.0089
    456 C           -1.0431   -18.0080    -8.7773 C       2   Sp2-C    -0.0368
    457 C           -2.3891   -19.0267    -6.9884 C       2   Sp2-C     0.0036
    458 C           -7.9534    18.2503    -9.2882 C       2   Sp2-C     0.1358
    459 C           -9.3480    17.9542    -9.0209 C       2   Sp2-C    -0.0057
    460 C          -10.1260    17.9786   -10.1834 C       2   Sp2-C    -0.0288
    461 C           -9.0569    18.1741   -11.1290 C       2   Sp2-C     0.0882
    462 O           -7.5403    18.3830   -10.6042 O       5   Sp2-O    -0.4832
    463 C           -9.5015    18.2071   -12.2813 C       2   Sp2-C    -0.0608
    464 H           -2.9083   -19.0346    -9.7797 H       4   all-H     0.0380
    465 H           -5.4879    18.8980   -10.4016 H       4   all-H     0.0817
    466 H           -7.4861    18.0682    -7.2008 H       4   all-H     0.0873
    467 H            0.6954   -17.2349    -9.7289 H       4   all-H     0.1239
    468 H           -1.8318   -17.8440    -9.4981 H       4   all-H     0.0304
    469 H           -2.3220    18.8073    -5.9541 H       4   all-H     0.1199
    470 H           -9.7557    17.7839    -7.9930 H       4   all-H     0.1293
    471 H          -11.1743    17.7379   -10.4389 H       4   all-H     0.0637
    472 H          -10.5951    18.2271   -12.4141 H       4   all-H     0.0315
    473 H           -8.9599    18.4608   -13.1751 H       4   all-H     0.0344
    474 C            0.7462   -11.1559   -11.6414 C       2   Sp2-C     0.1530
    475 O            1.3533   -10.0889   -12.3165 O       5   Sp2-O    -0.4670
    476 C            2.6302   -10.8985   -12.7596 C       2   Sp2-C     0.0879
    477 C            2.6716   -12.2139   -12.3411 C       2   Sp2-C    -0.0238
    478 C            1.4992   -12.3964   -11.6265 C       2   Sp2-C     0.0176
    479 C           -0.4777   -11.0825   -10.9128 C       2   Sp2-C     0.0115
    480 C            4.9928   -10.7663   -13.5979 C       2   Sp2-C     0.1258
    481 O            5.7922   -10.4991   -14.7122 O       5   Sp2-O    -0.4911
    482 C            7.1004   -11.3012   -14.0900 C       2   Sp2-C     0.1206
    483 C            6.8593   -11.8785   -12.8258 C       2   Sp2-C    -0.0253
    484 C            5.5394   -11.4330   -12.5036 C       2   Sp2-C    -0.0345
    485 C            3.6307   -10.3020   -13.5217 C       2   Sp2-C     0.0065
    486 C           -1.0182   -12.0455   -10.0588 C       2   Sp2-C     0.0972
    487 C           -2.1571   -11.4352    -9.5730 C       2   Sp2-C    -0.0305
    488 C           -2.6683   -12.4332    -8.6686 C       2   Sp2-C    -0.0426
    489 C           -1.7190   -13.5417    -8.6709 C       2   Sp2-C     0.0881
    490 O           -0.4302   -13.5303    -9.6302 O       5   Sp2-O    -0.4723
    491 C           -2.0913   -14.4296    -7.9130 C       2   Sp2-C    -0.0492
    492 H            3.4604   -12.9279   -12.5553 H       4   all-H     0.0525
    493 H            1.1595   -13.3797   -11.1809 H       4   all-H     0.1344
    494 H           -0.9115   -10.1200   -11.0943 H       4   all-H     0.1006
    495 H            7.5393   -12.4508   -12.2419 H       4   all-H     0.0812
    496 H            5.0199   -11.6217   -11.5480 H       4   all-H     0.0424
    497 H            3.4153    -9.3567   -13.9793 H       4   all-H     0.1391
    498 H           -2.7141   -10.4795    -9.8691 H       4   all-H     0.1239
    499 H           -3.4767   -12.2460    -7.9918 H       4   all-H     0.0521
    500 H           -3.0072   -14.4238    -7.3165 H       4   all-H     0.0626
    501 H           -1.4723   -15.3142    -7.8233 H       4   all-H     0.0529
    502 C            7.3399     0.1031   -15.6956 C       2   Sp2-C     0.1480
    503 O            6.3946    -0.9302   -16.0118 O       5   Sp2-O    -0.4854
    504 C            5.7096    -0.8292   -14.7039 C       2   Sp2-C     0.1399
    505 C            6.2940     0.1403   -13.8609 C       2   Sp2-C    -0.0285
    506 C            7.3478     0.8531   -14.4641 C       2   Sp2-C    -0.0632
    507 C            8.3505     0.5478   -16.3909 C       2   Sp2-C     0.1503
    508 C            4.7966    -1.6396   -14.1049 C       1   Sp1-C     0.0068
    509 H            5.9641     0.3299   -12.8183 H       4   all-H     0.0339
    510 H            7.9677     1.6131   -14.0695 H       4   all-H     0.0164
    511 H            8.9839     1.3608   -16.0899 H       4   all-H     0.0887
    512 H            4.1849    -2.5567   -14.0080 H       4   all-H     0.1262
    513 C           -7.7729   -11.0655     9.7771 C       2   Sp2-C     0.0942
    514 O           -6.3227   -10.5391     9.9854 O       5   Sp2-O    -0.4831
    515 C           -6.3976    -9.5849     8.8997 C       2   Sp2-C     0.1116
    516 C           -7.5687    -9.4028     8.2034 C       2   Sp2-C    -0.0425
    517 C           -8.4077   -10.4006     8.6874 C       2   Sp2-C    -0.0394
    518 C           -8.3957   -11.9539    10.6009 C       1   Sp1-C    -0.0269
    519 C           -5.2898    -8.6922     8.5563 C       2   Sp2-C    -0.0334
    520 H           -7.7434    -8.6868     7.4461 H       4   all-H     0.0287
    521 H           -9.4394   -10.6049     8.3247 H       4   all-H     0.0318
    522 H           -9.2299   -12.5471    10.8702 H       4   all-H     0.0711
    523 H           -5.4462    -7.8064     8.0322 H       4   all-H     0.0440
    524 C            0.0928    14.5956    16.0924 C       2   Sp2-C     0.1356
    525 O            0.1545    13.4430    16.8318 O       5   Sp2-O    -0.4487
    526 C            0.8722    14.1663    18.1014 C       2   Sp2-C     0.1204
    527 C            0.8667    15.6198    17.8588 C       2   Sp2-C    -0.0148
    528 C            0.4384    15.8724    16.5947 C       2   Sp2-C    -0.0336
    529 C           -0.3316    14.5725    14.6918 C       2   Sp2-C    -0.0152
    530 C            1.4162    13.5333    19.1131 C       1   Sp1-C     0.0098
    531 H            1.0492    16.3551    18.5745 H       4   all-H     0.0742
    532 H            0.3078    16.8582    16.1026 H       4   all-H     0.0345
    533 H           -0.1621    15.4260    14.0046 H       4   all-H     0.0471
    534 H            1.9128    13.3039   -18.5800 H       4   all-H     0.0758
    535 C           -3.5198    -9.2651   -17.2490 C       3   Sp3-C     0.0653
    536 C           -4.8912    -9.7064   -17.5241 C       2   Sp2-C    -0.0193
    537 C           -4.7304   -11.0024   -17.3032 C       2   Sp2-C     0.0030
    538 C           -3.2518   -11.3606   -17.1228 C       3   Sp3-C     0.1412
    539 C           -1.3416   -11.4728   -18.7478 C       2   Sp2-C     0.1389
    540 O           -0.4476   -10.4017   -18.7378 O       5   Sp2-O    -0.4949
    541 C           -1.2627    -9.2312   -18.6895 C       2   Sp2-C     0.1288
    542 C           -2.7689    -9.4574   -18.6309 C       3   Sp3-C    -0.0144
    543 C           -2.7590   -11.0947   -18.5581 C       3   Sp3-C     0.0148
    544 C           -0.7457    -8.0409   -18.4388 C       2   Sp2-C     0.0073
    545 C           -3.6074    -7.7498   -16.8390 C       3   Sp3-C    -0.0252
    546 C           -3.0392   -12.9058   -16.7260 C       3   Sp3-C    -0.0097
    547 C           -1.0711   -12.8059   -19.1039 C       2   Sp2-C    -0.0068
    548 O           -2.7316   -10.3988   -16.2740 O       5   Sp2-O    -0.4552
    549 C           -2.8536    -5.1169    16.9961 C       1   Sp1-C    -0.0278
    550 C           -2.5588    -5.4295    18.2949 C       2   Sp2-C    -0.0248
    551 C           -2.0761    -6.7479    18.7459 C       2   Sp2-C    -0.0064
    552 C           -1.4916    -6.8108   -18.7077 C       2   Sp2-C     0.1154
    553 O           -1.3294    -5.7572   -17.7476 O       6   Sp3-O    -0.4805
    554 O           -3.4122   -13.6275    18.9906 O       5   Sp2-O    -0.4993
    555 C           -2.0106   -13.8436    19.2039 C       2   Sp2-C     0.1064
    556 C           -1.3815   -15.1018    19.2127 C       2   Sp2-C    -0.0301
    557 C           -2.4465   -15.9605    18.9442 C       2   Sp2-C    -0.0348
    558 C           -3.6722   -15.2045    18.7796 C       2   Sp2-C     0.0874
    559 O           -4.5602    -6.3556   -14.9014 O       5   Sp2-O    -0.4617
    560 C           -4.4110    -6.6976   -13.4079 C       2   Sp2-C     0.1004
    561 C           -3.8084    -8.0134   -13.2653 C       2   Sp2-C    -0.0126
    562 C           -3.6751    -8.5648   -14.5108 C       2   Sp2-C     0.0056
    563 C           -4.0414    -7.5848   -15.3919 C       2   Sp2-C     0.1333
    564 C           -3.9804   -13.3184   -15.6119 C       2   Sp2-C     0.1540
    565 C           -5.1446   -14.0260   -15.9824 C       2   Sp2-C    -0.0243
    566 C           -5.7830   -14.3022   -14.8482 C       2   Sp2-C    -0.0039
    567 C           -5.1043   -13.7156   -13.6195 C       3   Sp3-C     0.0725
    568 O           -3.7347   -13.0935   -14.3506 O       5   Sp2-O    -0.4371
    569 C           -4.7371    -5.9477   -12.3884 C       2   Sp2-C    -0.0426
    570 C           -4.8140   -15.7425    18.5672 C       2   Sp2-C    -0.0386
    571 H           -5.8065    -9.1374   -17.7046 H       4   all-H     0.0852
    572 H           -5.5521   -11.6798   -17.3305 H       4   all-H     0.0655
    573 H           -3.2678    -9.0568    19.1393 H       4   all-H     0.0331
    574 H           -3.3133   -11.7229   -19.2945 H       4   all-H     0.1077
    575 H            0.3055    -8.0478   -18.1557 H       4   all-H     0.0742
    576 H           -2.5665    -7.3676   -16.9394 H       4   all-H     0.0840
    577 H           -4.1335    -7.0542   -17.4932 H       4   all-H     0.0593
    578 H           -3.2949   -13.3875   -17.7216 H       4   all-H     0.0817
    579 H           -1.9390   -13.0551   -16.5169 H       4   all-H     0.0677
    580 H           -0.0362   -13.0970   -19.1891 H       4   all-H     0.0762
    581 H           -2.8414    -4.6652    19.0012 H       4   all-H     0.0747
    582 H           -1.9776    -7.6160    18.0713 H       4   all-H     0.0846
    583 H           -0.3758   -15.3650   -19.1586 H       4   all-H     0.0521
    584 H           -2.3926   -17.0402    18.8544 H       4   all-H     0.0760
    585 H           -3.5074    -8.4882   -12.3413 H       4   all-H     0.1238
    586 H           -3.2553    -9.5616   -14.8193 H       4   all-H     0.1568
    587 H           -5.4475   -14.3034   -16.9917 H       4   all-H     0.0468
    588 H           -6.7349   -14.8502   -14.7372 H       4   all-H     0.1346
    589 H           -4.5947    -6.3120   -11.3656 H       4   all-H     0.0497
    590 H           -5.2448    -4.9805   -12.5283 H       4   all-H     0.0672
    591 H           -4.8555   -16.8218    18.5692 H       4   all-H     0.0446
    592 H           -5.7503   -15.2127    18.4258 H       4   all-H     0.0826
    593 C           -9.6014   -14.7303   -10.4531 C       3   Sp3-C     0.1239
    594 C           -8.8775   -16.0366   -10.1405 C       2   Sp2-C    -0.0272
    595 C           -9.0320   -16.4436    -8.9436 C       2   Sp2-C    -0.0287
    596 C          -10.0152   -15.3804    -8.4830 C       3   Sp3-C     0.0864
    597 C           -9.8088   -12.8828    -7.6619 C       2   Sp2-C     0.1617
    598 O           -9.9604   -11.8943    -8.6699 O       5   Sp2-O    -0.4755
    599 C           -9.0383   -12.2433    -9.6956 C       2   Sp2-C     0.1326
    600 C           -8.6601   -13.6999    -9.6181 C       3   Sp3-C     0.0075
    601 C           -9.0812   -14.0940    -8.1475 C       3   Sp3-C     0.0377
    602 C           -8.4187   -11.3981   -10.5866 C       2   Sp2-C    -0.0099
    603 C           -9.6420   -14.3601   -11.9629 C       3   Sp3-C    -0.0213
    604 C          -10.6871   -16.0047    -7.2955 C       3   Sp3-C     0.0021
    605 C          -10.2590   -12.7773    -6.3606 C       2   Sp2-C    -0.0001
    606 O          -10.7902   -14.7251    -9.7617 O       5   Sp2-O    -0.4682
    607 C           -6.1469   -11.3078   -13.3985 C       2   Sp2-C     0.1494
    608 C           -5.9521   -12.6673   -13.0345 C       2   Sp2-C     0.0218
    609 C           -6.8443   -12.8293   -11.9330 C       2   Sp2-C    -0.0337
    610 C           -7.5226   -11.6168   -11.6625 C       2   Sp2-C     0.1116
    611 O           -7.1973   -10.5469   -12.5049 O       5   Sp2-O    -0.4932
    612 O           -9.3766   -14.8451    -5.3111 O       5   Sp2-O    -0.4729
    613 C          -10.2225   -13.7703    -5.3194 C       2   Sp2-C     0.1233
    614 C          -11.1586   -13.5957    -4.2816 C       2   Sp2-C    -0.0498
    615 C          -11.0931   -14.6273    -3.3200 C       2   Sp2-C    -0.0488
    616 C          -10.0684   -15.4062    -3.9329 C       2   Sp2-C     0.0876
    617 O           -8.5462   -15.2051   -14.0732 O       5   Sp2-O    -0.4729
    618 C           -8.9666   -16.5495   -14.9297 C       2   Sp2-C     0.1013
    619 C           -9.7212   -17.3943   -14.0335 C       2   Sp2-C    -0.0366
    620 C           -9.8951   -16.7272   -12.8376 C       2   Sp2-C    -0.0367
    621 C           -9.3168   -15.4947   -13.0226 C       2   Sp2-C     0.1338
    622 C          -11.6099   -17.1236    -7.6796 C       2   Sp2-C     0.1472
    623 C          -12.1500   -17.0670    -8.8672 C       2   Sp2-C    -0.0053
    624 C          -13.1034   -18.0394    -9.3898 C       2   Sp2-C    -0.0342
    625 C          -13.5813    19.0187    -8.6476 C       1   Sp1-C     0.0312
    626 O          -11.8571   -18.0463    -6.7126 O       6   Sp3-O    -0.4914
    627 C           -8.6329   -16.8132   -16.1442 C       2   Sp2-C    -0.0100
    628 C           -9.8907   -16.4178    -3.2129 C       2   Sp2-C    -0.0296
    629 H           -8.1786   -16.5520   -10.8400 H       4   all-H     0.0483
    630 H           -8.6776   -17.2971    -8.4197 H       4   all-H     0.0634
    631 H           -7.6567   -13.9588    -9.8958 H       4   all-H     0.0318
    632 H           -8.2926   -14.3202    -7.4789 H       4   all-H     0.1194
    633 H           -8.6578   -10.3785   -10.4159 H       4   all-H     0.0721
    634 H          -10.4979   -13.8150   -12.3026 H       4   all-H     0.0544
    635 H           -9.1081   -13.4384   -12.3164 H       4   all-H     0.0585
    636 H          -10.0445   -16.3001    -6.4362 H       4   all-H     0.1255
    637 H          -11.3112   -15.2235    -6.7781 H       4   all-H     0.0693
    638 H          -10.8221   -11.8767    -6.1895 H       4   all-H     0.0524
    639 H           -4.8764   -14.4913   -12.9221 H       4   all-H     0.0680
    640 H           -6.9885   -13.8264   -11.5322 H       4   all-H     0.0294
    641 H          -11.8358   -12.7826    -4.2488 H       4   all-H     0.0236
    642 H          -11.6457   -14.6676    -2.4086 H       4   all-H     0.0404
    643 H          -10.1162   -18.4061   -14.2077 H       4   all-H     0.0352
    644 H          -10.4257   -16.9897   -11.9742 H       4   all-H     0.0431
    645 H          -12.0003   -16.2069    -9.4879 H       4   all-H     0.1062
    646 H          -13.3760   -18.1352   -10.4609 H       4   all-H     0.0505
    647 H           -9.0615   -17.7160   -16.5264 H       4   all-H     0.0751
    648 H           -8.0508   -16.2259   -16.8390 H       4   all-H     0.0709
    649 H          -10.4682   -16.6343    -2.3131 H       4   all-H     0.0723
    650 H           -9.0982   -17.1419    -3.5198 H       4   all-H     0.0607
    651 C            2.9492    -7.4575   -15.7418 C       3   Sp3-C     0.1100
    652 C            1.8202    -8.4387   -15.7696 C       2   Sp2-C    -0.0367
    653 C            1.8151    -9.6385   -16.4461 C       2   Sp2-C    -0.0372
    654 C            2.8794   -10.0215   -17.2349 C       2   Sp2-C    -0.0234
    655 C            5.1884    -9.0911   -17.9156 C       2   Sp2-C     0.1805
    656 O            5.8768    -8.0119   -17.5037 O       5   Sp2-O    -0.4966
    657 C            4.8927    -6.9295   -17.4641 C       2   Sp2-C     0.1357
    658 C            3.4838    -7.4611   -17.3327 C       3   Sp3-C    -0.0013
    659 C            3.7352    -9.0047   -17.8778 C       3   Sp3-C    -0.0017
    660 C            5.1906    -5.6284   -17.4312 C       2   Sp2-C     0.0050
    661 C            2.2624    -6.1262   -15.4105 C       3   Sp3-C     0.0146
    662 C            2.9077   -11.4818   -17.6886 C       3   Sp3-C    -0.0391
    663 C            5.8068   -10.2121   -18.6221 C       2   Sp2-C     0.0336
    664 O            4.0908    -7.7345   -14.8633 O       6   Sp3-O    -0.5894
    665 C            2.5520    -3.1597   -17.6931 C       2   Sp2-C     0.1447
    666 C            3.7414    -2.3923   -17.3860 C       2   Sp2-C     0.0275
    667 C            4.8033    -3.2652   -17.2356 C       2   Sp2-C     0.0099
    668 C            4.2432    -4.5154   -17.4682 C       2   Sp2-C     0.1327
    669 O            2.8575    -4.6431   -17.7427 O       5   Sp2-O    -0.4953
    670 O            4.1912   -10.5093    18.0221 O       6   Sp3-O    -0.4799
    671 C            5.2276   -10.9666    18.9850 C       2   Sp2-C     0.1330
    672 C            5.8333   -12.1646    19.0106 C       2   Sp2-C     0.0001
    673 C            5.5636   -13.2188    18.0567 C       2   Sp2-C    -0.0138
    674 C            4.7380   -13.1537    16.9290 C       1   Sp1-C     0.0255
    675 O            2.8672    -4.4229   -13.9881 O       5   Sp2-O    -0.4683
    676 C            1.7614    -4.6662   -11.3902 C       1   Sp1-C     0.1380
    677 C            1.8982    -5.9773   -11.4944 C       2   Sp2-C    -0.0446
    678 C            2.2040    -6.4586   -12.8659 C       2   Sp2-C    -0.0175
    679 C            2.5856    -5.5623   -13.9473 C       2   Sp2-C     0.2062
    680 C            3.5731   -12.5083   -16.6735 C       3   Sp3-C     0.0790
    681 C            2.7109   -13.0101   -15.5639 C       3   Sp3-C    -0.0280
    682 C            3.9920   -14.6644   -15.8171 C       3   Sp3-C     0.0064
    683 C            5.3348   -13.9284   -15.6038 C       2   Sp2-C     0.0785
    684 O            5.2729   -12.4890   -16.4687 O       6   Sp3-O    -0.5440
    685 C            6.2270   -14.2699   -14.8757 C       2   Sp2-C    -0.0467
    686 C            1.3879    -2.6702   -17.9350 C       2   Sp2-C     0.0129
    687 H            0.9560    -8.2049   -15.2064 H       4   all-H     0.0510
    688 H            1.0569   -10.3418   -16.2061 H       4   all-H     0.0813
    689 H            2.7475    -6.9294   -17.9719 H       4   all-H     0.0775
    690 H            3.5057    -9.1207   -18.9301 H       4   all-H     0.0789
    691 H            6.2910    -5.4895   -17.4385 H       4   all-H     0.0718
    692 H            2.5384    -5.4230   -16.2271 H       4   all-H     0.1561
    693 H            1.2297    -6.0697   -15.6709 H       4   all-H     0.0494
    694 H            1.8747   -11.7139   -17.9507 H       4   all-H     0.0591
    695 H            3.4649   -11.6156   -18.6257 H       4   all-H     0.0825
    696 H            6.7666   -10.5504   -18.2685 H       4   all-H     0.0808
    697 H            3.8159    -1.3007   -17.3177 H       4   all-H     0.0895
    698 H            5.8122    -3.0816   -16.9398 H       4   all-H     0.0843
    699 H            6.5405   -12.2700   -18.8041 H       4   all-H     0.0727
    700 H            6.1474   -14.1469    18.1416 H       4   all-H     0.0711
    701 H            1.6199    -6.6899   -10.7384 H       4   all-H     0.0506
    702 H            2.0049    -7.5158   -12.9802 H       4   all-H     0.0756
    703 H            1.7144   -12.7076   -15.1822 H       4   all-H     0.0656
    704 H           -2.1072    17.8627   -16.1622 H       4   all-H     0.1241
    705 H            6.2676   -15.1402   -14.1962 H       4   all-H     0.0369
    706 H            7.1951   -13.8072   -14.9139 H       4   all-H     0.0670
    707 H            1.2075    -1.6290   -17.8346 H       4   all-H     0.0667
    708 H            0.5285    -3.2730   -18.1699 H       4   all-H     0.1045
    709 C           -0.5865   -17.4735   -15.2342 C       3   Sp3-C     0.0851
    710 C           -1.5162   -16.3501   -15.5374 C       2   Sp2-C    -0.0432
    711 C           -2.7859   -16.5203   -16.0398 C       2   Sp2-C    -0.0344
    712 C           -2.8033   -17.6549   -16.7568 C       2   Sp2-C    -0.0298
    713 C           -1.6674    18.2025   -17.0995 C       3   Sp3-C     0.1024
    714 O           -0.0016    17.8657   -16.9255 O       5   Sp2-O    -0.4455
    715 C            0.6692    18.9640   -16.8003 C       2   Sp2-C     0.1866
    716 C           -0.2213   -17.9968   -16.6125 C       3   Sp3-C     0.0278
    717 C           -1.5964   -18.4363   -17.2927 C       3   Sp3-C     0.0003
    718 C            2.0373    19.0423   -16.9340 C       2   Sp2-C     0.0123
    719 C            0.6159   -16.8679   -14.4556 C       3   Sp3-C     0.0164
    720 C           -4.1708   -18.1419   -17.2606 C       3   Sp3-C    -0.0211
    721 C           -2.3937    17.6569   -18.2960 C       2   Sp2-C    -0.0061
    722 O           -1.1750   -18.7955   -14.3225 O       6   Sp3-O    -0.4472
    723 C            3.6272   -15.9127   -16.4249 C       2   Sp2-C     0.1150
    724 C            4.7403   -16.7750   -16.6640 C       2   Sp2-C    -0.0351
    725 C            4.2485   -18.0500   -17.0238 C       2   Sp2-C    -0.0407
    726 C            2.8876   -17.9105   -16.9227 C       2   Sp2-C     0.1038
    727 O            2.3243   -16.5384   -16.7590 O       5   Sp2-O    -0.4876
    728 O           -1.1973   -18.9299    18.5314 O       5   Sp2-O    -0.4680
    729 C           -2.1741    17.9553    19.0062 C       2   Sp2-C     0.0988
    730 C           -2.8560    17.2935    17.9690 C       2   Sp2-C    -0.0357
    731 C           -2.2844    17.7828    16.8148 C       2   Sp2-C    -0.0438
    732 C           -1.3107    18.8426    17.1642 C       2   Sp2-C     0.1195
    733 O            1.1026   -15.4584   -12.6951 O       5   Sp2-O    -0.4454
    734 C           -0.5379   -14.6083   -10.8344 C       2   Sp2-C     0.1533
    735 C           -1.4657   -15.3770   -11.4848 C       2   Sp2-C    -0.0146
    736 C           -1.1209   -16.1384   -12.6235 C       2   Sp2-C     0.0016
    737 C            0.2002   -16.0604   -13.1775 C       2   Sp2-C     0.1914
    738 C           -5.1011   -18.5006   -15.9890 C       2   Sp2-C     0.1772
    739 C           -5.2492    18.2770   -15.8296 C       2   Sp2-C    -0.0094
    740 C           -5.9301    18.1475   -14.6111 C       2   Sp2-C    -0.0402
    741 C           -6.1549   -18.6019   -14.1278 C       2   Sp2-C     0.0865
    742 O           -5.4706   -17.5348   -15.1725 O       5   Sp2-O    -0.4557
    743 C           -6.7094   -18.2852   -13.0979 C       2   Sp2-C    -0.0319
    744 C            3.1010   -13.8944   -16.4963 C       3   Sp3-C     0.0104
    745 H           -1.4184   -15.4097   -15.0397 H       4   all-H     0.0562
    746 H           -3.6211   -15.8672   -15.8479 H       4   all-H     0.0806
    747 H            0.2368   -17.2305   -17.2316 H       4   all-H     0.0740
    748 H           -1.2258   -18.2077   -18.2829 H       4   all-H     0.1138
    749 H            2.5564    18.0635   -16.9897 H       4   all-H     0.0736
    750 H            1.3182   -17.5923   -14.1345 H       4   all-H     0.0966
    751 H            1.2009   -16.1965   -15.0628 H       4   all-H     0.1106
    752 H           -4.5764   -17.2518   -17.8111 H       4   all-H     0.0689
    753 H           -4.0651   -18.9979   -17.9928 H       4   all-H     0.0573
    754 H           -3.1314    16.8987   -18.3031 H       4   all-H     0.0541
    755 H            5.8306   -16.5626   -16.4449 H       4   all-H     0.0396
    756 H            4.8207   -18.9451   -17.2269 H       4   all-H     0.0322
    757 H           -3.5740    16.5628    18.0850 H       4   all-H     0.0636
    758 H           -2.4617    17.4327    15.7643 H       4   all-H     0.0316
    759 H           -2.3824   -15.4943   -10.9097 H       4   all-H     0.0363
    760 H           -1.8633   -16.7589   -13.1154 H       4   all-H     0.0732
    761 H           -4.7896    17.5543   -16.4497 H       4   all-H     0.0482
    762 H           -6.1295    17.2570   -14.1796 H       4   all-H     0.0321
    763 H           -7.1038    19.0316   -12.4737 H       4   all-H     0.0902
    764 H           -6.8377   -17.2999   -12.7164 H       4   all-H     0.0671
    765 H            4.8005    -7.8039   -15.4843 H       4   all-H     0.3233
    766 H            5.3730   -11.7754   -15.6790 H       4   all-H     0.3472
    767 C           -0.4276     5.3228    -6.0696 C       2   Sp2-C     0.1869
    768 C           -1.9222     5.3277    -6.0134 C       2   Sp2-C    -0.0029
    769 C           -2.6576     4.2398    -5.7760 C       2   Sp2-C    -0.0155
    770 C           -2.4271     3.0179    -5.1706 C       2   Sp2-C     0.1611
    771 C           -3.7509     2.3193    -4.8245 C       3   Sp3-C    -0.0111
    772 O           -1.3515     2.4883    -4.7757 O       6   Sp3-O    -0.4778
    773 O            0.1690     6.2802    -5.8097 O       5   Sp2-O    -0.4628
    774 C           -4.9410     3.2922    -4.5048 C       2   Sp2-C     0.1471
    775 C           -6.1063     3.0130    -5.2561 C       2   Sp2-C    -0.0128
    776 C           -6.9769     3.9943    -4.9284 C       2   Sp2-C    -0.0193
    777 C           -6.3254     4.8540    -3.9045 C       2   Sp2-C     0.0866
    778 O           -4.8095     4.2654    -3.6317 O       5   Sp2-O    -0.4752
    779 C           -6.8594     5.8344    -3.4164 C       2   Sp2-C    -0.0345
    780 C            0.4506     4.1043    -6.7008 C       3   Sp3-C     0.0275
    781 C            0.6984     4.1614   -10.3808 C       2   Sp2-C     0.0914
    782 C            0.2767     5.4667   -10.1675 C       2   Sp2-C    -0.0212
    783 C            0.1627     5.5115    -8.7329 C       2   Sp2-C     0.0040
    784 C            0.5735     4.3269    -8.1372 C       2   Sp2-C     0.1572
    785 O            0.9458     3.3148    -8.8624 O       5   Sp2-O    -0.4547
    786 H           -2.4329     6.1960    -6.3020 H       4   all-H     0.0794
    787 H           -3.7182     4.4436    -5.8903 H       4   all-H     0.0642
    788 H           -4.0184     1.5315    -5.4550 H       4   all-H     0.0388
    789 H           -3.5460     1.7001    -3.9107 H       4   all-H     0.0897
    790 H           -6.2381     2.2278    -5.9950 H       4   all-H     0.0511
    791 H           -7.9073     4.0960    -5.4260 H       4   all-H     0.0805
    792 H           -7.8630     6.1691    -3.6843 H       4   all-H     0.0358
    793 H           -6.3559     6.4728    -2.7184 H       4   all-H     0.1232
    794 H            1.3676     3.8666    -6.1279 H       4   all-H     0.0716
    795 H            0.0239     3.0601    -6.5661 H       4   all-H     0.1348
    796 H           -0.0579     6.1927   -10.9081 H       4   all-H     0.0696
    797 H           -0.1942     6.3406    -8.1633 H       4   all-H     0.0915
    798 C           -6.7649    16.5853     7.8442 C       2   Sp2-C     0.1647
    799 C           -6.9513    17.6595     8.8286 C       2   Sp2-C    -0.0285
    800 C           -7.9645    18.5170     8.8787 C       2   Sp2-C    -0.0119
    801 C           -8.8254    18.6949     7.6953 C       2   Sp2-C     0.2005
    802 C           -8.0734    18.7082     6.2835 C       3   Sp3-C     0.0467
    803 O           -9.9355   -19.0534     7.7113 O       5   Sp2-O    -0.4688
    804 O           -7.4412    16.2276     6.9681 O       5   Sp2-O    -0.4997
    805 C           -8.8682    18.0383     5.1278 C       2   Sp2-C     0.1843
    806 C           -9.6794    16.9540     5.3066 C       2   Sp2-C     0.0226
    807 C          -10.1560    16.6468     4.0273 C       2   Sp2-C    -0.0196
    808 C           -9.6208    17.6056     3.0847 C       2   Sp2-C     0.1088
    809 O           -8.7422    18.6158     3.9100 O       5   Sp2-O    -0.4553
    810 C           -9.9028    17.6018     1.7962 C       2   Sp2-C    -0.0536
    811 C           -5.5425    15.6106     8.0990 C       3   Sp3-C     0.0106
    812 C           -8.9671    13.2284    10.8510 C       2   Sp2-C     0.1577
    813 C           -7.5847    13.4406    10.4748 C       2   Sp2-C    -0.0069
    814 C           -7.1428    14.4012     9.4553 C       2   Sp2-C     0.0054
    815 C           -5.8654    14.5620     9.0717 C       2   Sp2-C     0.1667
    816 O           -4.8627    13.8292     9.5424 O       6   Sp3-O    -0.5123
    817 H           -6.2599    17.4779     9.6611 H       4   all-H     0.0962
    818 H           -8.1376    19.0525     9.8093 H       4   all-H     0.0691
    819 H           -7.7418   -18.3813     6.1015 H       4   all-H     0.0954
    820 H           -7.1210    18.2478     6.3898 H       4   all-H     0.1222
    821 H          -10.0246    16.3947     6.1650 H       4   all-H     0.0835
    822 H          -10.8045    15.8514     3.8471 H       4   all-H     0.0499
    823 H          -10.4660    16.8189     1.3610 H       4   all-H     0.0212
    824 H           -9.6130    18.3519     1.1049 H       4   all-H     0.0494
    825 H           -5.1511    15.1821     7.1713 H       4   all-H     0.0766
    826 H           -4.6262    16.1035     8.2774 H       4   all-H     0.0616
    827 H           -6.7954    12.8218    10.8824 H       4   all-H     0.0841
    828 H           -7.8434    15.1437     9.0652 H       4   all-H     0.0876
    829 C           -8.3412    10.0301    -9.6653 C       2   Sp2-C     0.1435
    830 O           -8.4057     9.3348    -8.4596 O       5   Sp2-O    -0.4492
    831 C           -8.6745    10.6303    -7.5857 C       2   Sp2-C     0.0907
    832 C           -8.8764    11.8003    -8.2618 C       2   Sp2-C    -0.0491
    833 C           -8.5814    11.4416    -9.6117 C       2   Sp2-C    -0.0160
    834 C           -8.1606     9.3436   -10.8724 C       2   Sp2-C     0.0095
    835 C           -8.9694    11.4290    -5.1652 C       2   Sp2-C     0.1276
    836 O           -9.1677    10.9329    -3.8444 O       5   Sp2-O    -0.4968
    837 C           -9.3023    12.2833    -3.0711 C       2   Sp2-C     0.2608
    838 C           -9.2249    13.3689    -4.1938 C       2   Sp2-C     0.0098
    839 C           -8.9916    12.8416    -5.3699 C       2   Sp2-C    -0.0319
    840 C           -8.7721    10.4941    -6.2005 C       2   Sp2-C     0.0060
    841 C           -8.1459     9.8932   -12.1521 C       2   Sp2-C     0.0826
    842 C           -7.8731     9.0937   -13.2743 C       2   Sp2-C    -0.0407
    843 C           -7.9529     9.9838   -14.3384 C       2   Sp2-C    -0.0460
    844 C           -8.1864    11.3484   -13.7521 C       2   Sp2-C     0.1195
    845 O           -8.3384    11.4336   -12.3565 O       5   Sp2-O    -0.4990
    846 C           -8.1886    12.1445   -14.7176 C       2   Sp2-C    -0.0524
    847 H           -9.1291    12.7776    -7.9484 H       4   all-H     0.0297
    848 H           -8.5996    12.1587   -10.4408 H       4   all-H     0.0900
    849 H           -8.0337     8.2627   -10.8160 H       4   all-H     0.0995
    850 H           -9.2607    14.4087    -4.0546 H       4   all-H     0.0688
    851 H           -8.7956    13.3764    -6.2663 H       4   all-H     0.0302
    852 H           -8.7822     9.5269    -5.6414 H       4   all-H     0.0978
    853 H           -7.5813     8.0725   -13.3072 H       4   all-H     0.0752
    854 H           -7.7777     9.7068   -15.3342 H       4   all-H     0.0401
    855 H           -8.0667    11.7844   -15.7342 H       4   all-H     0.0359
    856 H           -8.3186    13.2257   -14.6358 H       4   all-H     0.0407
    857 C          -16.7588    11.9883    -5.8037 C       2   Sp2-C     0.1489
    858 O          -17.4378    12.9669    -6.5170 O       5   Sp2-O    -0.4580
    859 C          -16.2159    13.9285    -6.6892 C       2   Sp2-C     0.1117
    860 C          -15.0219    13.4884    -6.1372 C       2   Sp2-C    -0.0139
    861 C          -15.3703    12.2711    -5.5931 C       2   Sp2-C     0.0185
    862 C          -17.3181    10.7299    -5.3620 C       2   Sp2-C    -0.0053
    863 C          -15.3472    16.1818    -7.4745 C       2   Sp2-C     0.1178
    864 O          -15.4323    17.2084    -8.4361 O       5   Sp2-O    -0.4790
    865 C          -14.0959    17.9310    -7.9480 C       2   Sp2-C     0.1147
    866 C          -13.4291    17.3541    -6.8820 C       2   Sp2-C    -0.0275
    867 C          -14.2499    16.2342    -6.5795 C       2   Sp2-C    -0.0366
    868 C          -16.3317    15.1835    -7.3469 C       2   Sp2-C     0.0056
    869 C          -16.5465    10.0277    -4.4366 C       2   Sp2-C     0.1017
    870 C          -17.2023     8.8093    -4.2929 C       2   Sp2-C    -0.0254
    871 C          -16.3108     8.1912    -3.3365 C       2   Sp2-C    -0.0121
    872 C          -15.2268     9.0805    -3.0294 C       2   Sp2-C     0.1104
    873 O          -15.2525    10.3368    -3.7896 O       5   Sp2-O    -0.4919
    874 C          -14.4946     8.4762    -2.1780 C       2   Sp2-C    -0.0363
    875 H          -13.9985    13.9385    -6.1896 H       4   all-H     0.0512
    876 H          -14.6316    11.5876    -5.1943 H       4   all-H     0.1531
    877 H          -18.1952    10.2889    -5.7516 H       4   all-H     0.0733
    878 H          -12.4702    17.6764    -6.4260 H       4   all-H     0.0897
    879 H          -14.0918    15.6442    -5.7008 H       4   all-H     0.0715
    880 H          -17.2000    15.2963    -7.9969 H       4   all-H     0.0882
    881 H          -18.0512     8.3565    -4.8248 H       4   all-H     0.1092
    882 H          -16.4954     7.2022    -2.8800 H       4   all-H     0.1338
    883 H          -14.8244     7.5114    -1.8245 H       4   all-H     0.0706
    884 H          -13.5636     8.9497    -1.9174 H       4   all-H     0.0752
    885 C           -4.6246    -1.8963    14.0354 C       2   Sp2-C     0.1227
    886 O           -4.0552    -3.3309    13.6502 O       5   Sp2-O    -0.4342
    887 C           -3.6828    -3.5843    15.1350 C       2   Sp2-C     0.1389
    888 C           -4.0950    -2.7274    16.0925 C       2   Sp2-C    -0.0142
    889 C           -4.6757    -1.6554    15.4703 C       2   Sp2-C    -0.0216
    890 C           -5.1156    -1.0225    13.1391 C       1   Sp1-C     0.0027
    891 C           -3.1261    -4.8324    15.6101 C       2   Sp2-C     0.0159
    892 H           -4.0094    -2.8078    17.1762 H       4   all-H     0.0479
    893 H           -4.9326    -0.7107    15.9476 H       4   all-H     0.0483
    894 H           -5.5821    -0.1450    12.7431 H       4   all-H     0.0714
    895 H           -2.9179    -5.5410    14.8255 H       4   all-H     0.1268
    896 C          -17.6369    10.3146    11.3782 C       2   Sp2-C     0.0997
    897 O          -16.8042    11.5172    10.7211 O       5   Sp2-O    -0.4633
    898 C          -17.7904    12.4631    10.9864 C       2   Sp2-C     0.1379
    899 C           18.2591    12.1339    11.4852 C       2   Sp2-C    -0.0331
    900 C           18.3562    10.8122    11.7513 C       2   Sp2-C    -0.0267
    901 C          -17.3464     9.0762    11.6676 C       1   Sp1-C    -0.0002
    902 C          -17.7059    13.8919    10.7629 C       2   Sp2-C    -0.0358
    903 H           17.4023    12.7400    11.6989 H       4   all-H     0.0398
    904 H           17.5595    10.2230    12.1637 H       4   all-H     0.0571
    905 H          -17.3771     7.9865    12.0602 H       4   all-H     0.1192
    906 H          -18.5616    14.5112    10.9331 H       4   all-H     0.0369
    907 C          -15.4705     5.0776     7.0671 C       2   Sp2-C     0.0930
    908 O          -14.3243     3.8807     7.4530 O       6   Sp3-O    -0.4556
    909 C          -13.1790     5.0579     7.2603 C       3   Sp3-C     0.1026
    910 C          -13.5688     6.3799     6.6704 C       2   Sp2-C    -0.0202
    911 C          -14.9608     6.3742     6.5806 C       2   Sp2-C    -0.0273
    912 C          -16.7648     4.9120     7.0529 C       1   Sp1-C     0.0118
    913 C          -11.9166     4.9975     7.5044 C       1   Sp1-C    -0.0000
    914 H          -12.8404     7.1303     6.4457 H       4   all-H     0.1042
    915 H          -15.6427     7.1291     6.1700 H       4   all-H     0.0746
    916 H          -17.8334     4.9718     7.0412 H       4   all-H     0.1093
    917 H          -10.8959     4.7757     7.7549 H       4   all-H     0.0884
    918 C           16.6571    13.4335   -10.4901 C       3   Sp3-C     0.0740
    919 C           16.0979    12.3481    -9.6782 C       2   Sp2-C    -0.0238
    920 C           16.9197    11.3664    -9.9721 C       2   Sp2-C    -0.0082
    921 C           17.9399    11.8033   -11.0351 C       3   Sp3-C     0.1324
    922 C           17.7630    12.4312   -13.5379 C       2   Sp2-C     0.1709
    923 O           17.6303    13.7740   -13.7007 O       5   Sp2-O    -0.4813
    924 C           16.4405    14.1285   -12.9646 C       2   Sp2-C     0.1297
    925 C           16.1185    13.0689   -11.9536 C       3   Sp3-C     0.0045
    926 C           17.0384    11.8874   -12.3298 C       3   Sp3-C     0.0301
    927 C           15.7043    15.2123   -13.3839 C       2   Sp2-C     0.0238
    928 C           15.9467    14.7869    -9.9468 C       3   Sp3-C    -0.0284
    929 C          -18.1198    10.7696   -11.2581 C       3   Sp3-C    -0.0042
    930 C           18.3684    11.6317   -14.4831 C       2   Sp2-C     0.0041
    931 O           18.2570    13.1579   -10.9395 O       5   Sp2-O    -0.4488
    932 C           12.7664    17.0908   -12.3973 C       2   Sp2-C     0.2243
    933 C           12.5858    15.6573   -11.7617 C       2   Sp2-C    -0.0154
    934 C           13.6688    14.9742   -11.9343 C       2   Sp2-C    -0.0393
    935 C           14.4932    15.7375   -12.8566 C       2   Sp2-C     0.1325
    936 O           14.0650    16.9964   -13.2916 O       5   Sp2-O    -0.4719
    937 O           17.5105     9.3155   -13.8006 O       5   Sp2-O    -0.4780
    938 C           18.3768    10.1839   -14.4417 C       2   Sp2-C     0.1272
    939 C          -17.8724     9.6147   -15.0944 C       2   Sp2-C    -0.0224
    940 C          -17.8555     8.2102   -15.0054 C       2   Sp2-C    -0.0358
    941 C           18.2585     8.0438   -14.2559 C       2   Sp2-C     0.1025
    942 O           16.9322    16.7556    -8.7878 O       5   Sp2-O    -0.4834
    943 C           17.7321    16.8381    -7.3169 C       2   Sp2-C     0.0835
    944 C           17.7174    15.4770    -6.8250 C       2   Sp2-C    -0.0036
    945 C           17.0053    14.6404    -7.7002 C       2   Sp2-C    -0.0011
    946 C           16.6877    15.4187    -8.7454 C       2   Sp2-C     0.1497
    947 C          -18.2277     9.4688   -10.4783 C       2   Sp2-C     0.1450
    948 C           18.1562     8.5573   -10.9725 C       2   Sp2-C    -0.0185
    949 C           18.2368     7.4604   -10.1730 C       2   Sp2-C    -0.0386
    950 C          -18.1502     7.6702    -9.0417 C       3   Sp3-C     0.0661
    951 O          -17.4792     9.2116    -9.3897 O       5   Sp2-O    -0.4472
    952 C           18.2517    17.8112    -6.8230 C       2   Sp2-C    -0.0284
    953 C           18.1157     6.7831   -14.0476 C       2   Sp2-C    -0.0569
    954 H           15.2496    12.3829    -8.9759 H       4   all-H     0.1116
    955 H           16.8310    10.3632    -9.5957 H       4   all-H     0.0647
    956 H           15.0770    12.8355   -12.0160 H       4   all-H     0.0432
    957 H           16.6461    10.8439   -12.4881 H       4   all-H     0.0881
    958 H           16.3530    15.6216   -14.1603 H       4   all-H     0.1247
    959 H           15.9440    15.4237   -10.8594 H       4   all-H     0.0645
    960 H           14.9630    14.5605    -9.5684 H       4   all-H     0.0507
    961 H          -17.7444    10.6852   -12.2777 H       4   all-H     0.0538
    962 H          -17.2740    11.2901   -10.7972 H       4   all-H     0.1069
    963 H          -18.4336    12.0286   -15.2858 H       4   all-H     0.0650
    964 H           11.8052    15.3482   -11.1262 H       4   all-H     0.0576
    965 H           13.8708    14.0267   -11.5302 H       4   all-H     0.0319
    966 H          -17.1112    10.2293   -15.6463 H       4   all-H     0.0540
    967 H          -17.1475     7.4630   -15.4231 H       4   all-H     0.0512
    968 H           18.0898    15.1198    -5.9084 H       4   all-H     0.0752
    969 H           16.7246    13.6199    -7.6149 H       4   all-H     0.0615
    970 H           17.5478     8.7041   -11.8526 H       4   all-H     0.0980
    971 H           17.6265     6.5182   -10.2862 H       4   all-H     0.0339
    972 H          -18.5693    17.8218    -5.8501 H       4   all-H     0.0630
    973 H           18.1583    18.7879    -7.3783 H       4   all-H     0.1110
    974 H          -18.5567     6.0854   -14.4870 H       4   all-H     0.0440
    975 H           17.2981     6.3606   -13.4790 H       4   all-H     0.0427
    976 C           15.9517     3.7005    -7.2720 C       3   Sp3-C     0.0759
    977 C           16.6218     2.7437    -8.1999 C       2   Sp2-C    -0.0296
    978 C           16.3866     1.6318    -7.5895 C       2   Sp2-C    -0.0216
    979 C           15.4106     1.8493    -6.3594 C       3   Sp3-C     0.1367
    980 C           15.8978     2.7624    -4.0268 C       2   Sp2-C     0.1578
    981 O           15.7565     4.1345    -3.8213 O       5   Sp2-O    -0.4878
    982 C           16.5061     4.7376    -4.8841 C       2   Sp2-C     0.1246
    983 C           16.8715     3.7729    -5.9684 C       3   Sp3-C    -0.0098
    984 C           16.4970     2.3745    -5.3723 C       3   Sp3-C     0.0203
    985 C           16.7565     6.0699    -4.8992 C       2   Sp2-C     0.0112
    986 C           15.5210     5.0791    -7.9221 C       3   Sp3-C    -0.0241
    987 C           14.6155     0.4985    -5.9255 C       3   Sp3-C    -0.0046
    988 C           15.5092     1.7795    -3.1357 C       2   Sp2-C    -0.0034
    989 O           14.6036     2.8848    -6.6087 O       5   Sp2-O    -0.4415
    990 C           18.1567     8.6846    -6.8966 C       2   Sp2-C     0.1033
    991 C           18.4557     7.6008    -7.7426 C       2   Sp2-C     0.0045
    992 C           17.9919     6.4775    -6.9820 C       2   Sp2-C    -0.0198
    993 C           17.5208     6.9298    -5.7376 C       2   Sp2-C     0.1333
    994 O           17.4406     8.2568    -5.4611 O       5   Sp2-O    -0.4968
    995 O           16.7132    -0.1420    -4.1776 O       6   Sp3-O    -0.4906
    996 C           15.7392     0.3912    -3.2357 C       2   Sp2-C     0.1032
    997 C           15.0190    -0.4083    -2.3316 C       2   Sp2-C    -0.0406
    998 C           15.2576    -1.7936    -2.5337 C       2   Sp2-C    -0.0251
    999 C           16.2210    -1.7054    -3.5650 C       3   Sp3-C     0.0880
   1000 O           14.1323     4.6530   -10.0291 O       5   Sp2-O    -0.4715
   1001 C           12.5387     5.0480   -10.1308 C       2   Sp2-C     0.0976
   1002 C           12.0527     5.5049    -8.8119 C       2   Sp2-C    -0.0080
   1003 C           13.1302     5.4971    -7.9833 C       2   Sp2-C     0.0081
   1004 C           14.1842     4.9866    -8.7351 C       2   Sp2-C     0.1671
   1005 C           13.1905     0.4352    -6.5254 C       2   Sp2-C     0.1595
   1006 C           13.1374     0.5398    -7.8243 C       2   Sp2-C     0.0210
   1007 C           11.7453     0.3741    -8.5439 C       2   Sp2-C     0.0158
   1008 C           11.5044     0.4313    -9.8655 C       2   Sp2-C     0.1305
   1009 O           12.0666     0.2548    -5.6330 O       6   Sp3-O    -0.5009
   1010 C           11.9435     4.9926   -11.1854 C       2   Sp2-C    -0.0097
   1011 C           16.6002    -2.8739    -3.9137 C       2   Sp2-C     0.0015
   1012 H           17.1280     2.9741    -9.0745 H       4   all-H     0.0534
   1013 H           16.6811     0.6706    -7.9877 H       4   all-H     0.0962
   1014 H           17.9185     3.9038    -6.1744 H       4   all-H     0.0402
   1015 H           17.3286     1.6807    -5.2673 H       4   all-H     0.0737
   1016 H           16.3776     6.4468    -3.9507 H       4   all-H     0.0937
   1017 H           15.2003     5.7961    -7.1213 H       4   all-H     0.0493
   1018 H           16.3741     5.4324    -8.5125 H       4   all-H     0.0341
   1019 H           15.1397    -0.4292    -5.8390 H       4   all-H     0.0771
   1020 H           14.1857     0.5285    -4.8894 H       4   all-H     0.0862
   1021 H           14.9770     2.0215    -2.2556 H       4   all-H     0.0467
   1022 H          -17.4680     6.8125    -8.9477 H       4   all-H     0.0793
   1023 H           18.0958     5.4460    -7.3311 H       4   all-H     0.0458
   1024 H           14.3724    -0.0763    -1.5662 H       4   all-H     0.0352
   1025 H           14.9229    -2.6168    -1.9874 H       4   all-H     0.0684
   1026 H           11.0995     5.8511    -8.5224 H       4   all-H     0.0624
   1027 H           13.2707     5.8222    -6.9497 H       4   all-H     0.1170
   1028 H           13.9891     0.6989    -8.4580 H       4   all-H     0.0605
   1029 H           10.8415     0.2322    -7.9372 H       4   all-H     0.1110
   1030 H           10.8480     5.2552   -11.4013 H       4   all-H     0.1246
   1031 H           12.4407     4.7109   -12.1460 H       4   all-H     0.1045
   1032 H           16.2415    -3.8454    -3.4911 H       4   all-H     0.1288
   1033 H           17.2930    -3.0129    -4.7244 H       4   all-H     0.0891
   1034 C          -18.1545    17.4881   -13.2746 C       3   Sp3-C     0.0573
   1035 C          -18.4934    16.6509   -12.1565 C       2   Sp2-C    -0.0064
   1036 C          -17.6649    15.6560   -11.8011 C       2   Sp2-C     0.0048
   1037 C          -16.6710    15.8521   -12.8059 C       2   Sp2-C     0.0558
   1038 C          -16.0501    15.9184   -15.3329 C       2   Sp2-C     0.1236
   1039 O          -16.2776    17.2322   -15.8834 O       5   Sp2-O    -0.4991
   1040 C          -17.6345    17.4344   -15.7029 C       2   Sp2-C     0.1269
   1041 C          -18.2316    16.7206   -14.4940 C       3   Sp3-C     0.0015
   1042 C          -17.0481    15.5589   -14.2466 C       3   Sp3-C     0.0014
   1043 C          -18.3904    18.2319   -16.5121 C       2   Sp2-C    -0.0099
   1044 C           18.3970    18.7524   -13.2641 C       3   Sp3-C    -0.0116
   1045 C          -15.2743    15.3592   -12.5216 C       2   Sp2-C    -0.0012
   1046 C          -15.0778    15.1161   -15.6901 C       2   Sp2-C    -0.0017
   1047 O          -16.4612    17.6969   -13.0591 O       6   Sp3-O    -0.5745
   1048 C           15.4128    18.6915   -16.0840 C       2   Sp2-C     0.1091
   1049 C           15.6163   -18.5583   -17.1925 C       2   Sp2-C    -0.0108
   1050 C           17.0227   -18.6878   -17.3230 C       2   Sp2-C    -0.0173
   1051 C           17.5464    18.4770   -16.3986 C       2   Sp2-C     0.1266
   1052 O           16.6750    17.9043   -15.4599 O       5   Sp2-O    -0.4803
   1053 O          -15.2918    13.1402   -14.1538 O       6   Sp3-O    -0.5432
   1054 C          -14.7349    13.7641   -15.2119 C       2   Sp2-C     0.1439
   1055 C          -13.7307    13.3075   -16.0242 C       2   Sp2-C    -0.0009
   1056 C          -13.1475    12.0110   -15.8728 C       2   Sp2-C    -0.0207
   1057 C          -13.7330    11.0619   -15.0415 C       1   Sp1-C     0.0160
   1058 O           17.0927   -18.2392   -11.5382 O       5   Sp2-O    -0.4901
   1059 C           18.1288   -17.8664    -9.0100 C       2   Sp2-C     0.1885
   1060 C          -18.1188   -18.5738    -9.5643 C       2   Sp2-C     0.0037
   1061 C          -18.1919    19.0065   -10.8614 C       2   Sp2-C     0.0068
   1062 C           18.1008   -18.8386   -11.7432 C       2   Sp2-C     0.1863
   1063 C          -15.0301    14.8109   -11.2346 C       3   Sp3-C     0.0642
   1064 C          -15.7326    13.9722   -10.4088 C       3   Sp3-C    -0.0118
   1065 C          -13.7988    13.1644    -9.9797 C       3   Sp3-C     0.0183
   1066 C          -13.1561    14.4353    -9.4666 C       2   Sp2-C     0.0772
   1067 O          -13.6361    15.7752   -10.3516 O       6   Sp3-O    -0.5390
   1068 C          -12.4158    14.5056    -8.5118 C       2   Sp2-C    -0.0513
   1069 C           14.1338    18.7205   -15.7961 C       2   Sp2-C    -0.0289
   1070 H           17.8874    16.7114   -11.6361 H       4   all-H     0.0754
   1071 H          -17.7692    14.8723   -11.0674 H       4   all-H     0.1167
   1072 H           18.1715    16.3922   -14.8039 H       4   all-H     0.0928
   1073 H          -17.3404    14.5412   -14.3203 H       4   all-H     0.0923
   1074 H          -17.7572    18.6375   -17.3079 H       4   all-H     0.0632
   1075 H          -18.5011   -18.6208   -13.8879 H       4   all-H     0.0552
   1076 H           17.5351    18.6422   -13.9573 H       4   all-H     0.1174
   1077 H          -15.4181    13.8617   -13.3348 H       4   all-H     0.2308
   1078 H          -14.4676    15.9171   -12.9953 H       4   all-H     0.0875
   1079 H          -14.4262    15.4651   -16.4500 H       4   all-H     0.0741
   1080 H           14.9529   -18.0311   -17.8164 H       4   all-H     0.1144
   1081 H           17.6364   -18.1778   -18.0793 H       4   all-H     0.0430
   1082 H          -13.2838    13.9769   -16.7509 H       4   all-H     0.1016
   1083 H          -12.3394    11.6367   -16.3867 H       4   all-H     0.0569
   1084 H          -17.3514   -18.6938    -8.8019 H       4   all-H     0.0814
   1085 H          -17.3745    18.4486   -11.3030 H       4   all-H     0.1112
   1086 H          -16.0525    14.0784    -9.3894 H       4   all-H     0.0750
   1087 H          -12.4324     6.3682    -8.5415 H       4   all-H     0.3297
   1088 H          -12.1403    13.7202    -7.8101 H       4   all-H     0.0458
   1089 H          -12.0534    15.4900    -8.2039 H       4   all-H     0.0566
   1090 H           13.4680   -18.7105   -16.3088 H       4   all-H     0.0746
   1091 H           13.7963    18.1565   -14.9477 H       4   all-H     0.1145
   1092 C          -13.4432     8.0489    -8.2660 C       3   Sp3-C     0.1119
   1093 C          -14.7332     8.1783    -7.5058 C       2   Sp2-C    -0.0103
   1094 C          -15.5847     7.0841    -7.5481 C       2   Sp2-C    -0.0037
   1095 C          -15.3355     6.0733    -8.5407 C       2   Sp2-C    -0.0062
   1096 C          -13.7599     5.7299   -10.6764 C       2   Sp2-C     0.1372
   1097 O          -12.4986     6.3564   -10.8250 O       5   Sp2-O    -0.4923
   1098 C          -12.6179     7.7034   -10.6075 C       2   Sp2-C     0.1600
   1099 C          -13.8239     7.9656    -9.7314 C       3   Sp3-C     0.0101
   1100 C          -14.7212     6.5934    -9.9388 C       3   Sp3-C    -0.0017
   1101 C          -11.8250     8.6675   -11.2088 C       2   Sp2-C     0.0051
   1102 C          -12.5772     9.3604    -7.9978 C       3   Sp3-C     0.0146
   1103 C          -15.4976     4.7421    -8.2188 C       2   Sp2-C    -0.0078
   1104 C          -14.0504     4.4919   -11.2075 C       2   Sp2-C     0.0041
   1105 O          -12.4933     6.9718    -7.8347 O       6   Sp3-O    -0.5801
   1106 C          -13.1659    11.9505   -10.6079 C       2   Sp2-C     0.1480
   1107 C          -11.8684    12.2094   -11.2265 C       2   Sp2-C    -0.0215
   1108 C          -11.2185    11.0048   -11.4313 C       2   Sp2-C    -0.0234
   1109 C          -12.1430    10.0482   -11.0801 C       2   Sp2-C     0.0976
   1110 O          -13.4032    10.5991   -10.4240 O       5   Sp2-O    -0.4986
   1111 O          -16.5483     4.8717   -11.0419 O       6   Sp3-O    -0.5762
   1112 C          -15.4542     4.1294   -11.3345 C       2   Sp2-C     0.1307
   1113 C          -15.3886     2.8299   -11.7293 C       2   Sp2-C    -0.0336
   1114 C          -16.6158     2.0492   -12.0201 C       2   Sp2-C    -0.0303
   1115 C          -17.8463     2.5135   -12.4731 C       1   Sp1-C    -0.0119
   1116 O          -12.6111    10.8315    -5.9697 O       5   Sp2-O    -0.4678
   1117 C          -12.3014    10.3346    -4.3614 C       2   Sp2-C     0.1307
   1118 C          -12.2064     8.9378    -4.2864 C       2   Sp2-C    -0.0118
   1119 C          -12.3552     8.5484    -5.6162 C       2   Sp2-C     0.0187
   1120 C          -12.5325     9.6252    -6.4829 C       2   Sp2-C     0.1658
   1121 C          -16.0838     4.3356    -6.9690 C       2   Sp2-C     0.1262
   1122 C          -15.8928     2.9907    -6.5892 C       2   Sp2-C    -0.0318
   1123 C          -16.5465     2.8965    -5.3928 C       2   Sp2-C    -0.0278
   1124 C          -17.1929     4.1797    -5.0753 C       2   Sp2-C     0.1152
   1125 O          -16.8426     5.2294    -6.1615 O       5   Sp2-O    -0.4783
   1126 C          -17.9449     4.4124    -4.0248 C       2   Sp2-C     0.0100
   1127 C          -14.7053    13.3362   -11.0714 C       3   Sp3-C     0.0135
   1128 H          -14.9098     8.9605    -6.7939 H       4   all-H     0.0747
   1129 H          -16.3834     7.0280    -6.8493 H       4   all-H     0.1180
   1130 H          -14.3341     8.9359    -9.8940 H       4   all-H     0.1099
   1131 H          -15.6063     6.7539   -10.5707 H       4   all-H     0.0979
   1132 H          -10.9681     8.3407   -11.8302 H       4   all-H     0.0602
   1133 H          -11.6607     9.3896    -8.5886 H       4   all-H     0.0853
   1134 H          -12.9635    10.2593    -8.4603 H       4   all-H     0.1086
   1135 H          -17.2894     4.2753   -11.3965 H       4   all-H     0.2548
   1136 H          -15.2751     4.0626    -8.9877 H       4   all-H     0.0732
   1137 H          -13.2376     3.9114   -11.5689 H       4   all-H     0.0896
   1138 H          -11.4199    13.2154   -11.3852 H       4   all-H     0.0548
   1139 H          -10.1855    10.8586   -11.7687 H       4   all-H     0.0983
   1140 H          -14.4596     2.2783   -11.8449 H       4   all-H     0.0454
   1141 H          -16.4344     0.9756   -12.0532 H       4   all-H     0.1284
   1142 H          -11.9075     8.3745    -3.4319 H       4   all-H     0.0570
   1143 H          -12.3168     7.5586    -5.9543 H       4   all-H     0.1262
   1144 H          -15.4010     2.1840    -7.0726 H       4   all-H     0.0933
   1145 H          -16.5533     1.9616    -4.7813 H       4   all-H     0.0504
   1146 H          -18.1023     3.5988    -3.3663 H       4   all-H     0.0910
   1147 H          -18.4631     5.3055    -3.8144 H       4   all-H     0.0881
   1148 H          -16.2907    17.6582   -14.0101 H       4   all-H     0.3200
   1149 H          -14.2101    16.1741    -9.6014 H       4   all-H     0.3174
   1150 C            6.5429    -4.4172   -11.9303 C       2   Sp2-C     0.2059
   1151 C            5.9107    -5.7459   -12.1952 C       2   Sp2-C     0.0173
   1152 C            6.1624    -6.6635   -13.0667 C       2   Sp2-C     0.0118
   1153 C            7.1738    -6.5961   -14.1382 C       2   Sp2-C     0.1769
   1154 C            7.6366    -7.9243   -14.6581 C       3   Sp3-C     0.0132
   1155 O            7.5611    -5.5322   -14.4808 O       5   Sp2-O    -0.4956
   1156 O            6.0454    -3.4955   -11.4391 O       5   Sp2-O    -0.5144
   1157 C            9.1637    -7.9822   -14.8419 C       2   Sp2-C     0.1503
   1158 C            9.8354    -6.7871   -14.7949 C       2   Sp2-C    -0.0046
   1159 C           11.1864    -7.1871   -14.8580 C       2   Sp2-C    -0.0092
   1160 C           11.2495    -8.5986   -14.9742 C       2   Sp2-C     0.1142
   1161 O            9.7662    -9.2059   -14.8654 O       5   Sp2-O    -0.4473
   1162 C           12.3117    -9.3192   -15.0366 C       2   Sp2-C    -0.0070
   1163 C            8.1341    -4.3520   -12.2227 C       3   Sp3-C     0.0290
   1164 C            9.9230    -3.4498    -7.9813 C       1   Sp1-C     0.1202
   1165 C            9.6567    -2.7105    -8.9958 C       2   Sp2-C    -0.0232
   1166 C            8.6287    -3.2284   -10.1189 C       2   Sp2-C    -0.0179
   1167 C            9.0154    -3.8487   -11.0846 C       2   Sp2-C     0.1144
   1168 O           10.5119    -4.3227   -11.3438 O       6   Sp3-O    -0.4915
   1169 H            5.1267    -5.8036   -11.4857 H       4   all-H     0.0695
   1170 H            5.6964    -7.6420   -13.1251 H       4   all-H     0.0790
   1171 H            7.2035    -8.8375   -14.1804 H       4   all-H     0.0980
   1172 H            7.1339    -8.3035   -15.6038 H       4   all-H     0.1222
   1173 H            9.4348    -5.7759   -14.7796 H       4   all-H     0.1145
   1174 H           12.0082    -6.4558   -14.8710 H       4   all-H     0.1204
   1175 H           13.2937    -8.8710   -15.1193 H       4   all-H     0.0729
   1176 H           12.2630   -10.3858   -14.9886 H       4   all-H     0.0880
   1177 H            8.5263    -5.3211   -12.5426 H       4   all-H     0.1162
   1178 H            8.2816    -3.7791   -13.1488 H       4   all-H     0.0893
   1179 H            9.9944    -1.7507    -9.1977 H       4   all-H     0.0470
   1180 H            7.5732    -2.9425   -10.1710 H       4   all-H     0.0827
   1181 C           15.8599     3.7857     6.1875 C       2   Sp2-C     0.2045
   1182 C           16.0024     3.1043     4.8673 C       2   Sp2-C     0.0149
   1183 C           15.5362     3.4602     3.6878 C       2   Sp2-C     0.0135
   1184 C           14.8031     4.6352     3.2094 C       2   Sp2-C     0.2093
   1185 C           14.6086     4.7773     1.5864 C       3   Sp3-C    -0.0124
   1186 O           14.4450     5.5491     3.8321 O       5   Sp2-O    -0.4432
   1187 O           15.3474     4.8363     6.2827 O       5   Sp2-O    -0.4588
   1188 C           14.6225     3.3022     1.0954 C       2   Sp2-C     0.1211
   1189 C           15.7938     2.8623     0.5612 C       2   Sp2-C    -0.0196
   1190 C           15.6268     1.4699     0.3922 C       2   Sp2-C    -0.0370
   1191 C           14.2866     1.1599     0.7958 C       2   Sp2-C     0.0850
   1192 O           13.5723     2.4424     1.3079 O       5   Sp2-O    -0.4791
   1193 C           13.7414    -0.0228     0.7369 C       2   Sp2-C    -0.0388
   1194 C           16.4348     3.1216     7.4258 C       3   Sp3-C     0.0021
   1195 C          -18.0175    -0.2446     6.8764 C       1   Sp1-C     0.1724
   1196 C           18.3553    -0.1918     7.8497 C       2   Sp2-C    -0.0087
   1197 C           17.4098     0.8554     7.9053 C       2   Sp2-C    -0.0104
   1198 C           17.4594     1.9706     7.0463 C       2   Sp2-C     0.1632
   1199 O           18.3155     2.2091     6.2648 O       5   Sp2-O    -0.4686
   1200 H           16.6382     2.1605     4.9508 H       4   all-H     0.0831
   1201 H           15.7650     2.6943     2.8916 H       4   all-H     0.0572
   1202 H           13.7295     5.2979     1.4306 H       4   all-H     0.0582
   1203 H           15.4011     5.3270     1.0639 H       4   all-H     0.0520
   1204 H           16.7840     3.3486     0.4582 H       4   all-H     0.1229
   1205 H           16.4379     0.7884     0.0107 H       4   all-H     0.0491
   1206 H           14.2675    -0.8572     0.4602 H       4   all-H     0.0393
   1207 H           12.7234    -0.1137     1.1337 H       4   all-H     0.1238
   1208 H           16.9234     3.7726     8.1660 H       4   all-H     0.0753
   1209 H           15.6817     2.6922     8.0890 H       4   all-H     0.0417
   1210 H           18.2794    -1.0147     8.5926 H       4   all-H     0.0659
   1211 H           16.6105     0.8532     8.6844 H       4   all-H     0.0795
   1212 C           -3.0196    16.4877    -4.2187 C       2   Sp2-C     0.1681
   1213 O           -2.3795    17.7459    -4.0984 O       5   Sp2-O    -0.5067
   1214 C           -1.5022    17.3849    -2.8675 C       2   Sp2-C     0.1186
   1215 C           -1.6704    16.1020    -2.3843 C       2   Sp2-C    -0.0321
   1216 C           -2.5701    15.5209    -3.2715 C       2   Sp2-C     0.0054
   1217 C           -3.9362    16.2003    -5.2566 C       2   Sp2-C     0.0342
   1218 C           -0.2443   -18.6222    -2.5498 C       2   Sp2-C     0.1385
   1219 O            0.6993   -17.8552    -1.8433 O       5   Sp2-O    -0.4807
   1220 C            0.4087   -16.5348    -2.7466 C       2   Sp2-C     0.0880
   1221 C           -0.4288   -16.7459    -3.8855 C       2   Sp2-C    -0.0220
   1222 C           -0.8636   -18.0724    -3.6882 C       2   Sp2-C     0.0122
   1223 C           -0.5702    18.1843    -2.1508 C       2   Sp2-C     0.0028
   1224 C           -4.5462    14.9409    -5.5055 C       2   Sp2-C     0.1253
   1225 C           -5.3176    15.1791    -6.6208 C       2   Sp2-C    -0.0096
   1226 C           -5.9619    13.9098    -6.8065 C       2   Sp2-C    -0.0251
   1227 C           -5.5587    13.0485    -5.7271 C       3   Sp3-C     0.0780
   1228 O           -4.4221    13.6409    -4.5562 O       6   Sp3-O    -0.4768
   1229 C           -6.1152    11.9592    -5.7952 C       2   Sp2-C    -0.0541
   1230 H           -1.2542    15.6341    -1.5116 H       4   all-H     0.0310
   1231 H           -2.9695    14.5247    -3.1762 H       4   all-H     0.0808
   1232 H           -4.2337    17.0738    -5.8948 H       4   all-H     0.1188
   1233 H           -0.6725   -16.1063    -4.6641 H       4   all-H     0.0584
   1234 H           -1.4881   -18.6579    -4.3798 H       4   all-H     0.1235
   1235 H           -0.0295    17.8152    -1.2810 H       4   all-H     0.0588
   1236 H           -5.3564    16.0969    -7.2462 H       4   all-H     0.0850
   1237 H           -6.5299    13.5462    -7.6431 H       4   all-H     0.0535
   1238 H           -6.8235    11.7554    -6.5756 H       4   all-H     0.0303
   1239 H           -6.0291    11.1765    -5.0400 H       4   all-H     0.0467
   1240 C            1.4423    15.2648   -15.3281 C       2   Sp2-C     0.1623
   1241 O            2.8304    15.1765   -15.5615 O       5   Sp2-O    -0.4587
   1242 C            3.2125    16.3513   -14.6997 C       2   Sp2-C     0.1029
   1243 C            2.2388    17.0546   -14.0999 C       2   Sp2-C    -0.0025
   1244 C            1.0613    16.3380   -14.4560 C       2   Sp2-C     0.0541
   1245 C            0.5085    14.4129   -15.8484 C       2   Sp2-C     0.0236
   1246 C            5.0956    17.8675   -14.0206 C       2   Sp2-C     0.1113
   1247 O            6.4656    18.1170   -13.6001 O       5   Sp2-O    -0.4960
   1248 C            6.2257   -18.4593   -13.2132 C       2   Sp2-C     0.0895
   1249 C            4.9228   -17.9736   -13.4475 C       2   Sp2-C    -0.0296
   1250 C            4.2568    19.0239   -14.0328 C       2   Sp2-C    -0.0261
   1251 C            4.6037    16.6792   -14.4223 C       2   Sp2-C    -0.0058
   1252 C           -0.9215    14.4663   -15.5794 C       2   Sp2-C     0.1395
   1253 C           -1.6760    13.5013   -16.2899 C       2   Sp2-C    -0.0334
   1254 C           -2.9513    13.7396   -15.8086 C       2   Sp2-C    -0.0309
   1255 C           -2.9426    14.8105   -14.8689 C       2   Sp2-C     0.1079
   1256 O           -1.5055    15.3305   -14.6445 O       5   Sp2-O    -0.4673
   1257 C           -3.9683    15.2297   -14.2471 C       2   Sp2-C    -0.0404
   1258 H            2.3019    17.8822   -13.4361 H       4   all-H     0.0818
   1259 H            0.0630    16.5194   -14.0313 H       4   all-H     0.1766
   1260 H            0.6758    13.5475   -16.4708 H       4   all-H     0.0620
   1261 H            4.6678   -16.9865   -13.2708 H       4   all-H     0.0553
   1262 H            3.3108    19.0204   -14.5156 H       4   all-H     0.0438
   1263 H            5.4236    15.9346   -14.3869 H       4   all-H     0.0848
   1264 H           -1.3058    12.8015   -17.0111 H       4   all-H     0.0397
   1265 H           -3.9124    13.2384   -16.0831 H       4   all-H     0.0417
   1266 H           -4.9788    14.8200   -14.4593 H       4   all-H     0.0293
   1267 H           -3.8811    16.0851   -13.5506 H       4   all-H     0.0587
   1268 C            8.9607    -8.3724   -10.6874 C       2   Sp2-C     0.0966
   1269 O            8.8671    -6.8186   -10.5672 O       5   Sp2-O    -0.4840
   1270 C           10.1452    -6.6550   -11.2280 C       2   Sp2-C     0.1477
   1271 C           11.0220    -7.7607   -11.6125 C       2   Sp2-C    -0.0478
   1272 C           10.1866    -8.8015   -11.2844 C       2   Sp2-C    -0.0300
   1273 C            7.9775    -9.2374   -10.4075 C       1   Sp1-C    -0.0317
   1274 C           10.8583    -5.5615   -11.5773 C       2   Sp2-C     0.1565
   1275 H           12.0318    -7.7569   -11.9541 H       4   all-H     0.0451
   1276 H           10.3946    -9.8475   -11.3694 H       4   all-H     0.0517
   1277 H            7.4179   -10.1280   -10.2954 H       4   all-H     0.0649
   1278 H           11.8024    -5.5710   -12.1052 H       4   all-H     0.0978
   1279 C            0.8760     2.5241     7.5132 C       2   Sp2-C     0.1171
   1280 O            2.1551     3.2856     7.8077 O       5   Sp2-O    -0.4557
   1281 C            2.2126     2.9864     9.2444 C       2   Sp2-C     0.1257
   1282 C            1.2133     2.1906     9.7787 C       2   Sp2-C    -0.0237
   1283 C            0.3737     1.9015     8.7335 C       2   Sp2-C    -0.0256
   1284 C            0.2113     2.4000     6.3521 C       1   Sp1-C    -0.0217
   1285 C            3.2606     3.3649    10.1647 C       2   Sp2-C    -0.0312
   1286 H            1.1526     1.9723    10.8173 H       4   all-H     0.0492
   1287 H           -0.4495     1.2240     8.8689 H       4   all-H     0.0447
   1288 H           -0.5380     2.0769     5.5865 H       4   all-H     0.0906
   1289 H            3.1484     3.3011    11.2139 H       4   all-H     0.0363
   1290 C           10.8236    -3.5669     4.4979 C       2   Sp2-C     0.1355
   1291 O           10.4388    -4.7869     5.4604 O       6   Sp3-O    -0.4613
   1292 C            8.8953    -4.1130     5.6969 C       2   Sp2-C     0.0750
   1293 C            8.5819    -2.9571     4.8884 C       2   Sp2-C    -0.0327
   1294 C            9.7623    -2.5980     4.1587 C       2   Sp2-C    -0.0079
   1295 C           11.9691    -3.2705     3.9351 C       1   Sp1-C     0.0265
   1296 C            8.0433    -4.4967     6.6439 C       1   Sp1-C    -0.0377
   1297 H            7.5850    -2.5302     4.7198 H       4   all-H     0.0675
   1298 H            9.8724    -1.8403     3.3897 H       4   all-H     0.0772
   1299 H           12.7454    -2.8467     3.3908 H       4   all-H     0.0794
   1300 H            7.1735    -4.5817     7.3338 H       4   all-H     0.0578
   1301 C            5.8247    -0.4817     5.3536 C       2   Sp2-C     0.1032
   1302 O            6.4325    -0.3744     3.7864 O       6   Sp3-O    -0.4715
   1303 C            5.4799     1.0325     3.6346 C       2   Sp2-C     0.0944
   1304 C            4.6171     1.4503     4.7316 C       2   Sp2-C    -0.0267
   1305 C            4.8266     0.4995     5.7698 C       2   Sp2-C    -0.0070
   1306 C            6.2040    -1.3404     6.2927 C       1   Sp1-C    -0.0171
   1307 C            5.3052     1.8599     2.6267 C       1   Sp1-C     0.0005
   1308 H            3.8249     2.2157     4.6463 H       4   all-H     0.0721
   1309 H            4.3612     0.3630     6.8072 H       4   all-H     0.1373
   1310 H            6.2750    -1.8842     7.2297 H       4   all-H     0.0582
   1311 H            5.2658     2.3851     1.6915 H       4   all-H     0.1122
   1312 C            5.0942     7.7921   -11.1566 C       3   Sp3-C     0.0622
   1313 C            3.6620     7.3661   -11.2038 C       2   Sp2-C    -0.0485
   1314 C            3.1643     8.3777   -10.5786 C       2   Sp2-C    -0.0338
   1315 C            4.2509     9.4067   -10.1129 C       3   Sp3-C     0.1453
   1316 C            6.1632     9.2515    -8.2920 C       2   Sp2-C     0.1670
   1317 O            7.4183     8.8699    -8.7882 O       5   Sp2-O    -0.4695
   1318 C            7.1938     7.7395    -9.5642 C       2   Sp2-C     0.1388
   1319 C            5.6991     7.4676    -9.7777 C       3   Sp3-C    -0.0108
   1320 C            4.9798     8.6203    -8.9766 C       3   Sp3-C     0.0282
   1321 C            8.2071     7.0164   -10.0760 C       2   Sp2-C     0.0201
   1322 C            5.8536     7.1537   -12.3160 C       3   Sp3-C    -0.0122
   1323 C            3.4395    10.6875    -9.6057 C       3   Sp3-C     0.0041
   1324 C            6.0850    10.0856    -7.2155 C       2   Sp2-C     0.0343
   1325 O            5.2016     9.5129   -11.0742 O       5   Sp2-O    -0.4841
   1326 C            8.2743     3.8981   -11.8251 C       2   Sp2-C     0.0856
   1327 C            7.1059     3.6590   -11.0723 C       2   Sp2-C    -0.0470
   1328 C            6.9845     4.8926   -10.3374 C       2   Sp2-C    -0.0405
   1329 C            8.0191     5.7544   -10.6756 C       2   Sp2-C     0.1297
   1330 O            8.9872     5.3527   -11.5294 O       5   Sp2-O    -0.4721
   1331 O            3.5934     9.8562    -6.9181 O       5   Sp2-O    -0.4781
   1332 C            4.8688    10.4264    -6.5206 C       2   Sp2-C     0.1324
   1333 C            4.9381    11.3317    -5.4768 C       2   Sp2-C    -0.0227
   1334 C            3.6168    11.4754    -5.0910 C       2   Sp2-C    -0.0241
   1335 C            2.7651    10.8012    -6.0046 C       2   Sp2-C     0.1057
   1336 O            5.1722     6.7465   -14.7588 O       5   Sp2-O    -0.4926
   1337 C            4.5120     7.8721   -15.7331 C       2   Sp2-C     0.0888
   1338 C            4.1561     9.0251   -14.9440 C       2   Sp2-C    -0.0237
   1339 C            4.6117     8.7919   -13.6307 C       2   Sp2-C    -0.0023
   1340 C            5.1456     7.5279   -13.6679 C       2   Sp2-C     0.1542
   1341 C            2.4361    11.2126   -10.6516 C       2   Sp2-C     0.1400
   1342 C            1.1684    10.5892   -10.6023 C       2   Sp2-C    -0.0428
   1343 C            0.5095    11.0537   -11.6656 C       2   Sp2-C    -0.0384
   1344 C            1.4065    11.9788   -12.4238 C       3   Sp3-C     0.0614
   1345 O            2.8406    12.1051   -11.5469 O       5   Sp2-O    -0.4545
   1346 C            4.2696     7.8484   -16.9656 C       2   Sp2-C    -0.0281
   1347 C            1.4506    10.9261    -5.9236 C       2   Sp2-C    -0.0326
   1348 H            3.2259     6.5858   -11.6967 H       4   all-H     0.0540
   1349 H            2.0716     8.3939   -10.4636 H       4   all-H     0.0397
   1350 H            5.4021     6.4293    -9.5592 H       4   all-H     0.0204
   1351 H            4.1948     8.3365    -8.2607 H       4   all-H     0.0863
   1352 H            9.1804     7.4531    -9.8809 H       4   all-H     0.0898
   1353 H            6.9428     7.4042   -12.2894 H       4   all-H     0.1131
   1354 H            6.0981     6.0921   -12.1766 H       4   all-H     0.0484
   1355 H            2.8362    10.4421    -8.7292 H       4   all-H     0.0767
   1356 H            4.1466    11.4563    -9.1452 H       4   all-H     0.1334
   1357 H            7.0019    10.3808    -6.7444 H       4   all-H     0.0924
   1358 H            6.3988     2.8270   -11.2239 H       4   all-H     0.0266
   1359 H            6.1422     5.0844    -9.7191 H       4   all-H     0.0231
   1360 H            5.7966    11.8249    -5.1006 H       4   all-H     0.0568
   1361 H            3.2650    12.1610    -4.3558 H       4   all-H     0.0560
   1362 H            3.6237     9.9363   -15.2968 H       4   all-H     0.1132
   1363 H            4.5031     9.5266   -12.7975 H       4   all-H     0.1261
   1364 H            0.8191     9.8993    -9.8384 H       4   all-H     0.0403
   1365 H           -0.4734    10.7785   -11.9804 H       4   all-H     0.1064
   1366 H            3.8141     8.7230   -17.4408 H       4   all-H     0.0596
   1367 H            4.4763     6.9702   -17.5513 H       4   all-H     0.0849
   1368 H            1.0522    11.5545    -5.1892 H       4   all-H     0.0443
   1369 H            0.7254    10.3223    -6.5012 H       4   all-H     0.1169
   1370 C           -1.1500     8.4783   -15.4597 C       3   Sp3-C     0.0720
   1371 C           -2.1675     8.4008   -14.3739 C       2   Sp2-C    -0.0265
   1372 C           -3.1772     7.9914   -15.0951 C       2   Sp2-C    -0.0274
   1373 C           -2.9545     8.0297   -16.5506 C       3   Sp3-C     0.1163
   1374 C           -2.3981     9.8092   -18.4094 C       2   Sp2-C     0.1449
   1375 O           -1.0200     9.7649   -18.6672 O       5   Sp2-O    -0.4839
   1376 C           -0.3958    10.0230   -17.4307 C       2   Sp2-C     0.1317
   1377 C           -1.3164     9.7958   -16.2681 C       3   Sp3-C    -0.0043
   1378 C           -2.7296     9.5127   -16.9850 C       3   Sp3-C     0.0222
   1379 C            0.8666    10.5407   -17.2900 C       2   Sp2-C     0.0012
   1380 C            0.3097     8.2053   -14.9714 C       3   Sp3-C    -0.0248
   1381 C           -4.1182     7.2870   -17.2087 C       3   Sp3-C     0.0079
   1382 C           -3.3028    10.0495    19.1764 C       2   Sp2-C     0.0144
   1383 O           -1.6639     7.5117   -16.7838 O       5   Sp2-O    -0.4720
   1384 C            2.8543    11.7725   -14.6142 C       2   Sp2-C     0.1144
   1385 C            1.6285    11.5686   -13.8930 C       2   Sp2-C    -0.0022
   1386 C            0.7358    11.1601   -14.9188 C       2   Sp2-C    -0.0446
   1387 C            1.4632    10.9866   -16.1142 C       2   Sp2-C     0.1140
   1388 O            2.8136    11.2857   -16.1981 O       5   Sp2-O    -0.4809
   1389 O           -5.4326     9.8387   -18.1765 O       5   Sp2-O    -0.4768
   1390 C           -4.7186    10.0073    19.2895 C       2   Sp2-C     0.1416
   1391 C           -5.4227    10.4473    18.1438 C       2   Sp2-C     0.0016
   1392 C           -6.8204    10.3821    18.3070 C       2   Sp2-C    -0.0033
   1393 C           -6.8267     9.9976   -18.9241 C       2   Sp2-C     0.1100
   1394 O            0.1405     5.9068   -13.8656 O       5   Sp2-O    -0.4621
   1395 C            0.5373     4.4689   -14.5826 C       2   Sp2-C     0.0840
   1396 C            1.0264     4.7775   -15.9161 C       2   Sp2-C    -0.0214
   1397 C            1.1058     6.1512   -16.0609 C       2   Sp2-C    -0.0038
   1398 C            0.5221     6.6416   -14.8959 C       2   Sp2-C     0.1672
   1399 C           -4.1835     5.8761   -16.5668 C       2   Sp2-C     0.1834
   1400 C           -2.9295     5.4181   -15.9473 C       2   Sp2-C     0.0025
   1401 C           -2.8172     4.0781   -15.5704 C       2   Sp2-C    -0.0215
   1402 C           -3.8643     3.1657   -15.7413 C       2   Sp2-C     0.1579
   1403 O           -5.2142     5.3057   -16.5652 O       5   Sp2-O    -0.4438
   1404 C            0.5246     3.3180   -14.0923 C       2   Sp2-C    -0.0333
   1405 C           -8.0237     9.9717   -18.5144 C       2   Sp2-C    -0.0439
   1406 H           -2.0510     8.5546   -13.3294 H       4   all-H     0.0844
   1407 H           -4.1605     7.7406   -14.7581 H       4   all-H     0.0508
   1408 H           -1.4119    10.5776   -15.5351 H       4   all-H     0.0278
   1409 H           -3.6646     9.9577   -16.6225 H       4   all-H     0.0703
   1410 H            1.3730    10.5363   -18.2281 H       4   all-H     0.0837
   1411 H            0.9705     8.6649   -15.6876 H       4   all-H     0.0426
   1412 H            0.5666     8.6075   -14.0367 H       4   all-H     0.0522
   1413 H           -5.1355     7.6882   -17.0619 H       4   all-H     0.1001
   1414 H           -3.9374     7.3796   -18.2913 H       4   all-H     0.0713
   1415 H           -2.8195    10.2734    18.2513 H       4   all-H     0.1056
   1416 H            1.1852    13.0735   -12.4714 H       4   all-H     0.0913
   1417 H           -0.2898    11.0446   -14.7205 H       4   all-H     0.0327
   1418 H           -4.9971    10.9078    17.2518 H       4   all-H     0.0794
   1419 H           -7.6567    10.5540    17.6406 H       4   all-H     0.1250
   1420 H            1.4432     4.0616   -16.5741 H       4   all-H     0.0534
   1421 H            1.3869     6.6983   -16.9621 H       4   all-H     0.0533
   1422 H           -2.0642     6.0095   -15.8147 H       4   all-H     0.1292
   1423 H           -2.0114     3.5796   -15.0975 H       4   all-H     0.0514
   1424 H            0.9104     2.4998   -14.6395 H       4   all-H     0.0824
   1425 H            0.1894     3.1368   -13.0622 H       4   all-H     0.0625
   1426 H           -8.7591    10.2913   -19.2325 H       4   all-H     0.0392
   1427 H           -8.1536     9.7416   -17.4082 H       4   all-H     0.0512
   1428 C            7.6010    11.6786   -13.7202 C       2   Sp2-C     0.0517
   1429 C            6.2057    12.0943   -14.0119 C       2   Sp2-C    -0.0234
   1430 C            5.5236    12.8504   -13.1188 C       2   Sp2-C    -0.0078
   1431 C            6.1083    13.0594   -11.8162 C       2   Sp2-C     0.0127
   1432 C            8.0598    12.3732   -10.3560 C       2   Sp2-C     0.1571
   1433 O            9.3133    12.0596   -10.8787 O       5   Sp2-O    -0.5137
   1434 C            9.1449    11.0444   -11.7889 C       2   Sp2-C     0.1565
   1435 C            7.7342    11.0703   -12.3543 C       3   Sp3-C     0.0141
   1436 C            6.9133    11.8620   -11.2709 C       3   Sp3-C     0.0210
   1437 C           10.0733    10.1186   -12.1374 C       2   Sp2-C     0.0138
   1438 C            7.9801    10.7540   -14.8825 C       3   Sp3-C     0.0163
   1439 C            6.1110    14.2146   -11.1308 C       2   Sp2-C     0.0176
   1440 C            7.9756    13.0547    -9.1800 C       2   Sp2-C     0.0196
   1441 O            8.6024    13.2007   -13.5997 O       6   Sp3-O    -0.5825
   1442 C            8.9651     7.4476   -14.3214 C       2   Sp2-C     0.1443
   1443 C           10.3986     7.2049   -14.1780 C       2   Sp2-C    -0.0070
   1444 C           10.9126     8.1740   -13.3274 C       2   Sp2-C    -0.0037
   1445 C            9.8435     8.9686   -13.0006 C       2   Sp2-C     0.1365
   1446 O            8.5129     8.5350   -13.4920 O       5   Sp2-O    -0.4971
   1447 O            5.5529    12.8039    -8.5920 O       6   Sp3-O    -0.5800
   1448 C            6.8098    13.2690    -8.3776 C       2   Sp2-C     0.1467
   1449 C            7.3277    14.0310    -7.3625 C       2   Sp2-C    -0.0153
   1450 C            6.4932    14.3871    -6.1775 C       2   Sp2-C    -0.0246
   1451 C            5.1015    14.3601    -6.1687 C       1   Sp1-C    -0.0212
   1452 O            7.4477    10.1653   -17.1254 O       6   Sp3-O    -0.4734
   1453 C            7.5382    12.2250   -19.0409 C       1   Sp1-C     0.2160
   1454 C            7.4285    13.0294   -17.8797 C       2   Sp2-C     0.0009
   1455 C            7.6547    12.5157   -16.5015 C       2   Sp2-C    -0.0027
   1456 C            7.6410    11.2245   -16.2434 C       2   Sp2-C     0.1500
   1457 C            5.3125    15.3639   -11.3042 C       3   Sp3-C     0.0742
   1458 C            3.9610    15.6298   -11.7019 C       3   Sp3-C    -0.0079
   1459 C            4.0245    16.9335   -10.0116 C       2   Sp2-C     0.0140
   1460 C            5.2418    17.8194   -10.3804 C       2   Sp2-C     0.0926
   1461 O            6.3169    16.9732   -11.1716 O       6   Sp3-O    -0.5494
   1462 C            5.3159    18.9914   -10.0817 C       2   Sp2-C    -0.0449
   1463 C            8.1545     6.6676   -15.0444 C       2   Sp2-C    -0.0199
   1464 H            5.6699    11.7341   -14.9112 H       4   all-H     0.0634
   1465 H            4.5778    13.2962   -13.3484 H       4   all-H     0.0913
   1466 H            7.2746    10.0256   -12.3293 H       4   all-H     0.1121
   1467 H            6.2931    11.1120   -10.8584 H       4   all-H     0.1478
   1468 H           10.9934    10.1733   -11.5987 H       4   all-H     0.0733
   1469 H            9.0372    10.4001   -14.8090 H       4   all-H     0.1569
   1470 H            7.5509     9.7577   -14.8028 H       4   all-H     0.1218
   1471 H            5.0839    13.0421    -7.7651 H       4   all-H     0.2655
   1472 H            6.5544    14.3763   -10.1535 H       4   all-H     0.0943
   1473 H            9.0249    13.2137    -8.8610 H       4   all-H     0.0871
   1474 H           10.9388     6.4380   -14.6408 H       4   all-H     0.0529
   1475 H           11.9434     8.3076   -13.1918 H       4   all-H     0.0518
   1476 H            8.3259    14.2804    -7.4255 H       4   all-H     0.0596
   1477 H            7.0289    14.7512    -5.2827 H       4   all-H     0.1281
   1478 H            7.3647    14.1049   -18.0698 H       4   all-H     0.1087
   1479 H            7.8649    13.2041   -15.7275 H       4   all-H     0.0935
   1480 H            3.4946    16.2353   -12.4176 H       4   all-H     0.0630
   1481 H           -2.0173    15.9172    -8.1657 H       4   all-H     0.3244
   1482 H            4.4644   -18.6062    -9.5726 H       4   all-H     0.0618
   1483 H            6.1896   -18.5260   -10.3569 H       4   all-H     0.0475
   1484 H            8.5513     5.7321   -15.3557 H       4   all-H     0.0300
   1485 H            7.0863     6.7825   -15.1949 H       4   all-H     0.1230
   1486 C           -0.9045    15.1463    -9.5064 C       3   Sp3-C     0.1347
   1487 C           -1.1257    13.9780   -10.5021 C       2   Sp2-C    -0.0131
   1488 C           -1.6674    12.7787   -10.2663 C       2   Sp2-C    -0.0226
   1489 C           -1.9664    12.7064    -8.8784 C       2   Sp2-C     0.0058
   1490 C           -1.5610    13.2717    -6.5458 C       2   Sp2-C     0.1536
   1491 O           -1.5050    14.6304    -6.2180 O       5   Sp2-O    -0.4857
   1492 C           -0.4775    15.1455    -6.9709 C       2   Sp2-C     0.1443
   1493 C           -0.2377    14.3688    -8.2670 C       3   Sp3-C     0.0015
   1494 C           -0.9414    13.0355    -7.8273 C       3   Sp3-C     0.0008
   1495 C            0.3657    16.1937    -6.6813 C       2   Sp2-C     0.0049
   1496 C           -0.0237    16.2213   -10.2525 C       3   Sp3-C     0.0325
   1497 C           -3.3920    12.1755    -8.5289 C       3   Sp3-C    -0.0140
   1498 C           -1.9856    12.3433    -5.5892 C       2   Sp2-C     0.0145
   1499 O           -2.0234    15.9407    -9.1058 O       6   Sp3-O    -0.5693
   1500 C            3.1699    16.8140    -8.8833 C       2   Sp2-C     0.1207
   1501 C            3.3729    17.6488    -7.7465 C       2   Sp2-C    -0.0195
   1502 C            2.2699    17.6138    -6.8990 C       2   Sp2-C    -0.0087
   1503 C            1.4775    16.5965    -7.5144 C       2   Sp2-C     0.1292
   1504 O            1.9303    15.9783    -8.6843 O       5   Sp2-O    -0.5131
   1505 O           -1.2662    10.3720    -6.9755 O       5   Sp2-O    -0.4884
   1506 C           -1.8231    10.9669    -5.8734 C       2   Sp2-C     0.1233
   1507 C           -2.3241    10.1594    -4.8466 C       2   Sp2-C    -0.0356
   1508 C           -2.1889     8.8189    -5.1452 C       2   Sp2-C    -0.0242
   1509 C           -1.4950     8.8820    -6.3880 C       2   Sp2-C     0.1323
   1510 O            0.1862    17.5324   -12.1217 O       5   Sp2-O    -0.4681
   1511 C           -1.9437    18.6494   -13.4788 C       1   Sp1-C     0.2009
   1512 C           -2.7351    17.9645   -12.6249 C       2   Sp2-C    -0.0260
   1513 C           -2.0972    17.1441   -11.6035 C       2   Sp2-C     0.0095
   1514 C           -0.6535    17.0365   -11.4386 C       2   Sp2-C     0.1898
   1515 C           -4.4079    12.6803    -9.5966 C       2   Sp2-C     0.1454
   1516 C           -5.2429    11.7853   -10.1971 C       2   Sp2-C    -0.0185
   1517 C           -5.9360    12.5384   -11.1248 C       2   Sp2-C    -0.0161
   1518 C           -5.6081    13.9533   -10.9444 C       2   Sp2-C     0.1015
   1519 O           -4.5186    14.0189    -9.8197 O       5   Sp2-O    -0.4241
   1520 C           -6.2076    14.9199   -11.5253 C       2   Sp2-C    -0.0382
   1521 C            4.1658    15.5701   -10.3116 C       3   Sp3-C     0.0317
   1522 H           -0.8625    14.1870   -11.5391 H       4   all-H     0.0615
   1523 H           -2.0096    12.0168   -10.9819 H       4   all-H     0.1269
   1524 H            0.8238    14.2138    -8.4898 H       4   all-H     0.0771
   1525 H           -0.3203    12.1631    -7.8068 H       4   all-H     0.0789
   1526 H            0.1435    16.7720    -5.8141 H       4   all-H     0.0848
   1527 H            0.3931    16.9773    -9.5790 H       4   all-H     0.1160
   1528 H            0.9234    15.8321   -10.7059 H       4   all-H     0.0974
   1529 H           -3.3840    11.0853    -8.3602 H       4   all-H     0.0638
   1530 H           -3.6580    12.5451    -7.5090 H       4   all-H     0.0767
   1531 H           -2.2972    12.6166    -4.5850 H       4   all-H     0.0809
   1532 H            4.2379    18.3328    -7.6833 H       4   all-H     0.0427
   1533 H            2.0750    18.0820    -5.9658 H       4   all-H     0.0716
   1534 H           -2.6533    10.5288    -3.9000 H       4   all-H     0.0308
   1535 H           -2.4518     8.0018    -4.5307 H       4   all-H     0.0510
   1536 H           -3.8416    18.0866   -12.7232 H       4   all-H     0.0332
   1537 H           -2.7368    16.6729   -10.8979 H       4   all-H     0.1220
   1538 H           -5.3072    10.6708   -10.0017 H       4   all-H     0.0491
   1539 H           -6.6411    12.1807   -11.8465 H       4   all-H     0.1061
   1540 H           -6.9530    14.7693   -12.3353 H       4   all-H     0.0337
   1541 H           -5.8393    15.9222   -11.4342 H       4   all-H     0.0754
   1542 H            8.9770    13.1113   -12.7183 H       4   all-H     0.3134
   1543 H            6.3545    17.4544   -12.1165 H       4   all-H     0.3478
   1544 C           -7.9924    12.9016     1.0718 C       2   Sp2-C     0.1797
   1545 C           -9.0314    11.9821     1.5510 C       2   Sp2-C    -0.0026
   1546 C          -10.1346    11.6010     0.8459 C       2   Sp2-C    -0.0293
   1547 C          -10.4279    11.6941    -0.5323 C       2   Sp2-C     0.1575
   1548 C          -11.6387    10.9313    -1.0054 C       3   Sp3-C    -0.0121
   1549 O           -9.7557    12.3741    -1.3514 O       6   Sp3-O    -0.4812
   1550 O           -6.9315    12.8951     1.5682 O       5   Sp2-O    -0.4955
   1551 C          -11.3143     9.4007    -0.9691 C       2   Sp2-C     0.1279
   1552 C          -10.3891     8.9984    -1.9204 C       2   Sp2-C    -0.0221
   1553 C          -10.2407     7.6346    -1.6687 C       2   Sp2-C    -0.0227
   1554 C          -11.0714     7.2493    -0.5444 C       2   Sp2-C     0.0953
   1555 O          -11.8868     8.5699    -0.0811 O       5   Sp2-O    -0.4805
   1556 C          -11.2302     6.0602    -0.0785 C       2   Sp2-C    -0.0060
   1557 C           -8.0897    14.0761     0.0287 C       3   Sp3-C     0.0340
   1558 C           -5.2378    13.5747    -3.1766 C       2   Sp2-C     0.1337
   1559 C           -5.5608    12.5341    -2.3078 C       2   Sp2-C    -0.0332
   1560 C           -6.5319    12.6851    -1.2982 C       2   Sp2-C    -0.0009
   1561 C           -7.2322    13.9122    -1.2132 C       2   Sp2-C     0.2050
   1562 O           -7.2259    14.8394    -1.9494 O       5   Sp2-O    -0.4834
   1563 H           -8.9887    11.6515     2.5610 H       4   all-H     0.1184
   1564 H          -10.7911    10.9497     1.4233 H       4   all-H     0.0481
   1565 H          -12.5991    11.2258    -0.6001 H       4   all-H     0.0470
   1566 H          -11.7588    11.2237    -2.0912 H       4   all-H     0.0771
   1567 H           -9.8723     9.6185    -2.6086 H       4   all-H     0.1176
   1568 H           -9.6180     6.9656    -2.2116 H       4   all-H     0.0543
   1569 H          -10.6198     5.2076    -0.3780 H       4   all-H     0.1028
   1570 H          -11.9471     5.8746     0.7350 H       4   all-H     0.0723
   1571 H           -9.1791    14.2529    -0.2475 H       4   all-H     0.0826
   1572 H           -8.0138    14.9907     0.5653 H       4   all-H     0.0617
   1573 H           -5.0426    11.6280    -2.6263 H       4   all-H     0.0395
   1574 H           -6.7566    11.9252    -0.5881 H       4   all-H     0.0729
   1575 C            0.9309    -1.4278   -13.8385 C       2   Sp2-C     0.1906
   1576 C            2.0599    -0.9023   -13.1345 C       2   Sp2-C     0.0058
   1577 C            2.7205    -1.2628   -11.9974 C       2   Sp2-C    -0.0115
   1578 C            2.5354    -2.2944   -11.1250 C       2   Sp2-C     0.1735
   1579 C            3.5808    -2.3774   -10.0705 C       3   Sp3-C     0.0229
   1580 O            1.6238    -3.2487   -11.0454 O       6   Sp3-O    -0.5044
   1581 O            0.5941    -0.9326   -14.8637 O       5   Sp2-O    -0.4389
   1582 C            4.1091    -1.0558    -9.6146 C       2   Sp2-C     0.1408
   1583 C            5.5033    -0.9011    -9.7387 C       2   Sp2-C    -0.0355
   1584 C            5.6689     0.2951    -9.0309 C       2   Sp2-C    -0.0386
   1585 C            4.4016     0.7584    -8.5230 C       2   Sp2-C     0.0902
   1586 O            3.2217    -0.1849    -9.1875 O       5   Sp2-O    -0.4628
   1587 C            4.2209     1.7846    -7.8917 C       2   Sp2-C    -0.0365
   1588 C            0.3619    -2.8017   -13.3835 C       3   Sp3-C     0.0253
   1589 C           -1.2973    -5.6486   -16.3906 C       1   Sp1-C     0.1951
   1590 C           -1.1197    -5.8628   -15.0100 C       2   Sp2-C    -0.0118
   1591 C           -0.7497    -4.8657   -14.0226 C       2   Sp2-C    -0.0213
   1592 C           -0.4410    -3.5456   -14.5136 C       2   Sp2-C     0.1996
   1593 O           -0.6502    -3.0285   -15.5532 O       5   Sp2-O    -0.3965
   1594 H            2.5141    -0.0422   -13.6030 H       4   all-H     0.1426
   1595 H            3.6590    -0.7186   -11.8296 H       4   all-H     0.0489
   1596 H            3.3035    -2.8778    -9.0652 H       4   all-H     0.1412
   1597 H            4.3956    -3.0369   -10.4415 H       4   all-H     0.1008
   1598 H            6.2415    -1.4447   -10.2776 H       4   all-H     0.0634
   1599 H            6.5534     0.8583    -8.9307 H       4   all-H     0.0395
   1600 H            5.0460     2.4814    -7.7869 H       4   all-H     0.0202
   1601 H            3.3508     2.0891    -7.4543 H       4   all-H     0.0882
   1602 H            1.2037    -3.5042   -13.2039 H       4   all-H     0.1302
   1603 H           -0.1794    -2.7241   -12.3958 H       4   all-H     0.0671
   1604 H           -1.3974    -6.8866   -14.8159 H       4   all-H     0.0529
   1605 H           -0.4861    -5.0885   -12.9866 H       4   all-H     0.0351
   1606 C          -11.4563   -16.5848     4.6423 C       2   Sp2-C     0.1591
   1607 O          -10.3465   -16.4394     3.7196 O       5   Sp2-O    -0.4556
   1608 C          -11.1090   -16.7053     2.4960 C       2   Sp2-C     0.1298
   1609 C          -12.4182   -17.2244     2.6368 C       2   Sp2-C    -0.0234
   1610 C          -12.5947   -17.1180     4.0234 C       2   Sp2-C     0.0080
   1611 C          -11.3507   -16.2598     5.9674 C       2   Sp2-C     0.0246
   1612 C           -9.4405   -16.0022     0.7716 C       2   Sp2-C     0.1582
   1613 O           -9.0959   -15.7683    -0.4868 O       5   Sp2-O    -0.4705
   1614 C           -7.6837   -14.9191    -0.1198 C       2   Sp2-C     0.0835
   1615 C           -7.4290   -14.9206     1.2575 C       2   Sp2-C    -0.0328
   1616 C           -8.5183   -15.6285     1.7571 C       2   Sp2-C     0.0101
   1617 C          -10.7123   -16.5190     1.1683 C       2   Sp2-C     0.0093
   1618 C          -12.4370   -16.2602     6.9506 C       2   Sp2-C     0.1223
   1619 C          -12.1068   -15.9527     8.2696 C       2   Sp2-C    -0.0382
   1620 C          -13.2879   -15.9502     8.9558 C       2   Sp2-C    -0.0321
   1621 C          -14.3855   -16.2286     8.0111 C       2   Sp2-C     0.0972
   1622 O          -13.8026   -16.3538     6.5710 O       5   Sp2-O    -0.4714
   1623 C          -15.6199   -16.2042     8.3753 C       2   Sp2-C    -0.0308
   1624 H          -13.1297   -17.5495     1.8291 H       4   all-H     0.1025
   1625 H          -13.5803   -17.3887     4.4634 H       4   all-H     0.0921
   1626 H          -10.3788   -15.9169     6.2934 H       4   all-H     0.0776
   1627 H           -6.5784   -14.4343     1.6655 H       4   all-H     0.0463
   1628 H           -8.6542   -15.8079     2.8340 H       4   all-H     0.1280
   1629 H          -11.4984   -16.7976     0.4629 H       4   all-H     0.0623
   1630 H          -11.1143   -15.7013     8.5973 H       4   all-H     0.0370
   1631 H          -13.3913   -15.7557     9.9622 H       4   all-H     0.0575
   1632 H          -15.8415   -16.0333     9.4493 H       4   all-H     0.0626
   1633 H          -16.4682   -16.3378     7.7555 H       4   all-H     0.0729
   1634 C           16.4823    -6.0556     5.9452 C       2   Sp2-C     0.1361
   1635 O           17.0469    -4.7616     6.3614 O       5   Sp2-O    -0.4883
   1636 C           18.2572    -5.3619     7.0279 C       2   Sp2-C     0.0969
   1637 C           18.4291    -6.7379     7.0006 C       2   Sp2-C    -0.0383
   1638 C           17.2539    -7.1622     6.3292 C       2   Sp2-C    -0.0089
   1639 C           15.3566    -6.1283     5.1261 C       2   Sp2-C     0.0225
   1640 C          -17.3043    -5.1752     8.8110 C       2   Sp2-C     0.1216
   1641 O          -16.2519    -4.4541     9.2696 O       5   Sp2-O    -0.4702
   1642 C          -16.0441    -5.3757    10.5919 C       2   Sp2-C     0.0764
   1643 C          -16.8523    -6.5286    10.6074 C       2   Sp2-C    -0.0295
   1644 C          -17.7080    -6.3413     9.4982 C       2   Sp2-C    -0.0304
   1645 C          -18.1487    -4.6249     7.8136 C       2   Sp2-C    -0.0047
   1646 C           14.6819    -7.3169     4.7040 C       2   Sp2-C     0.1339
   1647 C           13.5828    -7.1029     3.8545 C       2   Sp2-C    -0.0158
   1648 C           13.0967    -8.3894     3.6806 C       2   Sp2-C    -0.0262
   1649 C           13.9255    -9.4030     4.2726 C       2   Sp2-C     0.0758
   1650 O           15.1264    -8.5990     5.0228 O       5   Sp2-O    -0.4842
   1651 C           13.7475   -10.5957     4.1990 C       2   Sp2-C    -0.0448
   1652 H          -18.0560    -7.3778     7.3006 H       4   all-H     0.0530
   1653 H           17.0273    -8.1937     6.0188 H       4   all-H     0.0905
   1654 H           14.8993    -5.1577     4.8307 H       4   all-H     0.0700
   1655 H          -16.8602    -7.3294    11.2914 H       4   all-H     0.0694
   1656 H          -18.5850    -6.8954     9.3305 H       4   all-H     0.0430
   1657 H          -18.0829    -3.5517     7.6196 H       4   all-H     0.0885
   1658 H           13.1186    -6.1388     3.4647 H       4   all-H     0.0794
   1659 H           12.2493    -8.6151     3.1435 H       4   all-H     0.0597
   1660 H           12.9408   -11.0605     3.6021 H       4   all-H     0.0541
   1661 H           14.3736   -11.2905     4.7012 H       4   all-H     0.0601
   1662 C           -7.8611    -8.0316    -6.9737 C       2   Sp2-C     0.1003
   1663 O           -7.3667    -6.8170    -7.7846 O       5   Sp2-O    -0.4629
   1664 C           -8.3745    -6.9520    -8.8187 C       2   Sp2-C     0.1265
   1665 C           -9.2091    -8.0488    -8.8356 C       2   Sp2-C    -0.0209
   1666 C           -8.8607    -8.7658    -7.7126 C       2   Sp2-C    -0.0171
   1667 C           -7.5616    -8.4098    -5.7190 C       1   Sp1-C    -0.0259
   1668 C           -8.5318    -5.9712    -9.8791 C       2   Sp2-C    -0.0188
   1669 H           -9.9293    -8.2633    -9.5745 H       4   all-H     0.0493
   1670 H           -9.2321    -9.7690    -7.4751 H       4   all-H     0.0839
   1671 H           -7.5290    -9.0470    -4.8622 H       4   all-H     0.0626
   1672 H           -9.3372    -6.1351   -10.5092 H       4   all-H     0.0466
   1673 C            3.1428   -17.0983    -8.2667 C       2   Sp2-C     0.1194
   1674 O            2.7946   -16.6580    -9.5471 O       5   Sp2-O    -0.4455
   1675 C            4.2092   -16.1655    -9.9242 C       2   Sp2-C     0.1119
   1676 C            5.1132   -16.4228    -8.8278 C       2   Sp2-C    -0.0338
   1677 C            4.4472   -16.9976    -7.7420 C       2   Sp2-C    -0.0330
   1678 C            2.2537   -17.6626    -7.3069 C       2   Sp2-C     0.0026
   1679 C            4.6394   -15.4702   -11.0102 C       1   Sp1-C    -0.0240
   1680 H            6.1078   -16.0130    -8.7285 H       4   all-H     0.0669
   1681 H            4.8596   -17.2738    -6.7448 H       4   all-H     0.1115
   1682 H            2.6689   -18.0471    -6.4104 H       4   all-H     0.0677
   1683 H            5.3999   -14.9639   -11.5981 H       4   all-H     0.0481
   1684 C          -17.4681    -4.5726     0.1685 C       3   Sp3-C     0.0689
   1685 C          -18.4721    -5.6259    -0.0792 C       2   Sp2-C    -0.0311
   1686 C          -17.7865    -6.6484     0.3137 C       2   Sp2-C    -0.0169
   1687 C          -16.3496    -6.2533     0.7750 C       3   Sp3-C     0.1474
   1688 C          -14.2714    -5.3157    -0.5289 C       2   Sp2-C     0.1779
   1689 O          -14.2835    -3.9184    -0.5709 O       5   Sp2-O    -0.4726
   1690 C          -15.4869    -3.4957    -0.9619 C       2   Sp2-C     0.2022
   1691 C          -16.4771    -4.6598    -0.9668 C       3   Sp3-C     0.0294
   1692 C          -15.6765    -5.8817    -0.5876 C       3   Sp3-C     0.0292
   1693 C          -15.6760    -2.1996    -1.4426 C       2   Sp2-C     0.0436
   1694 C          -18.0332    -3.1024     0.4426 C       3   Sp3-C    -0.0065
   1695 C          -15.7435    -7.6098     1.5155 C       3   Sp3-C     0.0031
   1696 C          -13.1307    -6.0516    -0.5479 C       2   Sp2-C     0.0299
   1697 O          -16.3249    -5.0691     1.3699 O       5   Sp2-O    -0.4795
   1698 C           18.2631    -0.4242    -3.5519 C       2   Sp2-C     0.1148
   1699 C          -17.9725     0.1338    -3.0873 C       2   Sp2-C    -0.0180
   1700 C          -16.7953    -0.6122    -2.3869 C       2   Sp2-C    -0.0165
   1701 C          -16.7685    -1.9162    -2.2728 C       2   Sp2-C     0.1384
   1702 O          -17.7408    -2.9212    -2.7313 O       6   Sp3-O    -0.4859
   1703 O          -14.2876    -8.2555    -0.9866 O       5   Sp2-O    -0.4940
   1704 C          -13.1598    -7.4680    -0.6385 C       2   Sp2-C     0.1391
   1705 C          -11.9349    -8.1239    -0.3605 C       2   Sp2-C    -0.0087
   1706 C          -12.2320    -9.4515    -0.6164 C       2   Sp2-C     0.0002
   1707 C          -13.6481    -9.7017    -0.8813 C       2   Sp2-C     0.1027
   1708 O           17.8945    -1.7316     2.0006 O       5   Sp2-O    -0.4780
   1709 C           17.5198    -2.0079     3.5059 C       2   Sp2-C     0.1022
   1710 C           17.9624    -3.3539     3.8489 C       2   Sp2-C    -0.0111
   1711 C           18.6507    -3.8953     2.7513 C       2   Sp2-C    -0.0046
   1712 C           18.5801    -2.9135     1.7952 C       2   Sp2-C     0.1393
   1713 C          -16.8789    -8.3925     2.1773 C       2   Sp2-C     0.1468
   1714 C          -17.1277    -9.6649     1.5508 C       2   Sp2-C    -0.0261
   1715 C          -18.3140   -10.0106     1.9506 C       2   Sp2-C    -0.0275
   1716 C           18.5235    -9.0429     3.0071 C       3   Sp3-C     0.0611
   1717 O          -17.5528    -7.8805     3.1597 O       5   Sp2-O    -0.4578
   1718 C           16.9180    -1.2322     4.3486 C       2   Sp2-C    -0.0345
   1719 C          -14.1845   -10.7774    -1.0438 C       2   Sp2-C    -0.0392
   1720 H           17.8560    -5.5135    -0.4909 H       4   all-H     0.0932
   1721 H          -18.1326    -7.6559     0.1526 H       4   all-H     0.0553
   1722 H          -16.9415    -4.7757    -1.9159 H       4   all-H     0.0828
   1723 H          -15.7240    -6.6782    -1.3253 H       4   all-H     0.0807
   1724 H          -15.0472    -1.3736    -1.2453 H       4   all-H     0.0823
   1725 H          -17.1472    -2.4236     0.4612 H       4   all-H     0.0997
   1726 H          -18.6121    -2.6253    -0.3426 H       4   all-H     0.0832
   1727 H          -15.1780    -8.2494     0.8703 H       4   all-H     0.0970
   1728 H          -15.0431    -7.2709     2.2752 H       4   all-H     0.1123
   1729 H          -12.2102    -5.5053    -0.4957 H       4   all-H     0.0741
   1730 H          -18.1157     1.2730    -3.1131 H       4   all-H     0.0715
   1731 H          -16.0465     0.0426    -1.9393 H       4   all-H     0.0611
   1732 H          -11.0217    -7.5907    -0.1327 H       4   all-H     0.0558
   1733 H          -11.4082   -10.1823    -0.5204 H       4   all-H     0.0744
   1734 H           17.8280    -3.8519     4.8450 H       4   all-H     0.1179
   1735 H          -18.2225    -4.8847     2.6491 H       4   all-H     0.1055
   1736 H          -16.4542   -10.1807     0.8346 H       4   all-H     0.0586
   1737 H           18.4435   -10.9304     1.6128 H       4   all-H     0.0922
   1738 H           16.5928    -1.4024     5.3504 H       4   all-H     0.0660
   1739 H           16.6318    -0.2769     3.9353 H       4   all-H     0.0595
   1740 H          -13.7085   -11.7370    -0.9718 H       4   all-H     0.0401
   1741 H          -15.2335   -10.8145    -1.3383 H       4   all-H     0.0627
   1742 C           14.7811   -11.8604    -0.2174 C       3   Sp3-C     0.0670
   1743 C           15.4198   -13.1295     0.1120 C       2   Sp2-C    -0.0155
   1744 C           14.3573   -13.8901     0.1763 C       2   Sp2-C     0.0043
   1745 C           13.0718   -13.1169    -0.2169 C       3   Sp3-C     0.1241
   1746 C           11.6219   -11.3544     0.7844 C       2   Sp2-C     0.1686
   1747 O           11.8866   -10.0704     0.4338 O       5   Sp2-O    -0.4854
   1748 C           13.2899    -9.9820     0.8070 C       2   Sp2-C     0.1217
   1749 C           14.0363   -11.3145     1.0264 C       3   Sp3-C    -0.0070
   1750 C           12.7565   -12.2100     0.9759 C       3   Sp3-C     0.0465
   1751 C           13.9238    -8.8019     0.9290 C       2   Sp2-C    -0.0042
   1752 C           15.9276   -10.8634    -0.6875 C       3   Sp3-C    -0.0269
   1753 C           11.9327   -14.2087    -0.4897 C       3   Sp3-C    -0.0079
   1754 C           10.3330   -11.8525     0.9148 C       2   Sp2-C     0.0180
   1755 O           13.3390   -12.1500    -1.1852 O       5   Sp2-O    -0.4736
   1756 C           17.0456    -7.1255     1.9043 C       2   Sp2-C     0.1289
   1757 C           17.1763    -8.4547     2.4506 C       2   Sp2-C     0.0178
   1758 C           15.9658    -9.1753     2.0889 C       2   Sp2-C    -0.0259
   1759 C           15.2035    -8.3290     1.4333 C       2   Sp2-C     0.0942
   1760 O           15.5920    -6.7674     1.1027 O       6   Sp3-O    -0.4505
   1761 O           10.8776   -13.9204     2.1099 O       5   Sp2-O    -0.4915
   1762 C            9.9747   -13.1302     1.5140 C       2   Sp2-C     0.1334
   1763 C            8.6864   -13.5226     1.4125 C       2   Sp2-C    -0.0062
   1764 C            8.4463   -14.8089     1.9786 C       2   Sp2-C    -0.0242
   1765 C            9.7892   -15.0595     2.4305 C       2   Sp2-C     0.0945
   1766 O           18.1624   -11.6600    -1.6757 O       5   Sp2-O    -0.4547
   1767 C           18.2759   -12.0767    -3.2414 C       2   Sp2-C     0.0959
   1768 C           16.9724   -12.2054    -3.9042 C       2   Sp2-C    -0.0296
   1769 C           16.0289   -11.7527    -2.9604 C       2   Sp2-C    -0.0254
   1770 C           16.7140   -11.4918    -1.8402 C       2   Sp2-C     0.1244
   1771 C           12.1276   -15.1955    -1.7252 C       2   Sp2-C     0.1755
   1772 C           12.6512   -14.4262    -2.8325 C       2   Sp2-C    -0.0119
   1773 C           12.6830   -14.8437    -4.1305 C       2   Sp2-C    -0.0321
   1774 C           12.2456   -16.1454    -4.5596 C       1   Sp1-C     0.0203
   1775 O           11.7787   -16.3176    -1.7268 O       5   Sp2-O    -0.4393
   1776 C          -18.1540   -12.3871    -4.0230 C       2   Sp2-C     0.0048
   1777 C            9.8158   -16.1933     3.0165 C       2   Sp2-C    -0.0543
   1778 H           16.5190   -13.2882     0.2718 H       4   all-H     0.0822
   1779 H           14.3385   -14.9285     0.4145 H       4   all-H     0.0859
   1780 H           14.6513   -11.4108     1.8929 H       4   all-H     0.0425
   1781 H           12.5338   -12.8645     1.8241 H       4   all-H     0.1327
   1782 H           13.1602    -8.0939     0.7011 H       4   all-H     0.0912
   1783 H           15.3049    -9.9794    -0.9148 H       4   all-H     0.0577
   1784 H           16.6756   -10.5315     0.0471 H       4   all-H     0.0642
   1785 H           11.7046   -14.9101     0.3096 H       4   all-H     0.1117
   1786 H           10.9839   -13.7146    -0.5371 H       4   all-H     0.0562
   1787 H            9.5221   -11.1800     0.7122 H       4   all-H     0.1155
   1788 H           18.4510    -9.4251     4.0217 H       4   all-H     0.0833
   1789 H           15.6892   -10.1802     2.3372 H       4   all-H     0.0308
   1790 H            7.8903   -12.9578     0.9183 H       4   all-H     0.1009
   1791 H            7.5551   -15.3404     2.0634 H       4   all-H     0.0924
   1792 H           16.7544   -12.5377    -4.9116 H       4   all-H     0.1009
   1793 H           14.9744   -11.6005    -3.1433 H       4   all-H     0.0633
   1794 H           13.0899   -13.4733    -2.4751 H       4   all-H     0.1083
   1795 H           13.1319   -14.0272    -4.7511 H       4   all-H     0.0539
   1796 H          -18.3151   -12.7825    -5.0203 H       4   all-H     0.0954
   1797 H          -17.0984   -12.4207    -3.7198 H       4   all-H     0.1152
   1798 H            8.9295   -16.8552     3.1783 H       4   all-H     0.0406
   1799 H           10.7759   -16.4833     3.4222 H       4   all-H     0.0524
   1800 C          -15.0833    -2.8910     4.5367 C       3   Sp3-C     0.1126
   1801 C          -16.2347    -3.7036     5.0078 C       2   Sp2-C    -0.0228
   1802 C          -16.2235    -5.1188     4.8147 C       2   Sp2-C    -0.0291
   1803 C          -15.0098    -5.6766     4.2955 C       2   Sp2-C    -0.0084
   1804 C          -12.6861    -4.9465     3.5192 C       2   Sp2-C     0.1587
   1805 O          -12.1774    -3.6902     3.2353 O       5   Sp2-O    -0.4866
   1806 C          -13.2503    -2.8910     2.7345 C       2   Sp2-C     0.1542
   1807 C          -14.6084    -3.3950     3.0930 C       3   Sp3-C     0.0281
   1808 C          -14.1911    -4.9510     3.2757 C       3   Sp3-C     0.0220
   1809 C          -13.1100    -1.8519     1.8857 C       2   Sp2-C     0.0163
   1810 C          -15.6695    -1.4645     4.2884 C       3   Sp3-C     0.0140
   1811 C          -15.0228    -6.9644     4.7731 C       2   Sp2-C    -0.0041
   1812 C          -11.9668    -6.0530     4.0537 C       2   Sp2-C     0.0053
   1813 O          -13.9669    -2.8219     5.5795 O       6   Sp3-O    -0.5656
   1814 C          -16.1197     0.0679     0.8076 C       2   Sp2-C     0.0855
   1815 C          -14.9779     0.6723     0.1187 C       2   Sp2-C    -0.0166
   1816 C          -13.7694     0.0855     0.4634 C       2   Sp2-C    -0.0188
   1817 C          -14.1355    -0.9799     1.2964 C       2   Sp2-C     0.1359
   1818 O          -15.4805    -1.2352     1.5410 O       5   Sp2-O    -0.4961
   1819 O          -13.1218    -8.0090     2.8616 O       6   Sp3-O    -0.5956
   1820 C          -12.2314    -7.4449     3.8693 C       2   Sp2-C     0.1212
   1821 C          -11.6168    -8.0567     4.9124 C       2   Sp2-C    -0.0221
   1822 C          -11.6661    -9.5114     5.1201 C       2   Sp2-C    -0.0354
   1823 C          -12.4775   -10.4308     4.4306 C       1   Sp1-C    -0.0105
   1824 O          -16.8382    -0.8723     6.2609 O       6   Sp3-O    -0.4833
   1825 C          -14.4324     2.6005     6.4549 C       2   Sp2-C     0.1365
   1826 C          -15.3671     1.6781     6.1612 C       2   Sp2-C    -0.0044
   1827 C          -15.1683     0.5588     5.2237 C       2   Sp2-C    -0.0131
   1828 C          -15.8704    -0.5769     5.3967 C       2   Sp2-C     0.1672
   1829 C          -15.6174    -7.3535     6.0251 C       3   Sp3-C    -0.0106
   1830 C          -15.7249    -7.1500     7.3689 C       3   Sp3-C    -0.0332
   1831 C          -14.5946    -8.9297     7.8767 C       2   Sp2-C     0.0342
   1832 C          -13.5468    -8.1829     8.8493 C       2   Sp2-C     0.1292
   1833 O          -12.4254    -7.4981     8.2994 O       6   Sp3-O    -0.5637
   1834 C          -13.7512    -8.2443    10.0440 C       2   Sp2-C    -0.0281
   1835 C          -17.2823     0.3855     0.7318 C       2   Sp2-C    -0.0344
   1836 H          -17.0340    -3.1685     5.4389 H       4   all-H     0.0822
   1837 H          -16.9880    -5.6403     5.3068 H       4   all-H     0.0708
   1838 H          -15.3953    -3.2225     2.3438 H       4   all-H     0.1350
   1839 H          -13.9837    -5.5978     2.3747 H       4   all-H     0.0973
   1840 H          -12.0952    -1.6693     1.5903 H       4   all-H     0.0638
   1841 H          -14.8534    -1.1145     3.6100 H       4   all-H     0.0777
   1842 H          -16.5974    -1.5660     3.6644 H       4   all-H     0.0849
   1843 H          -12.7054    -8.8347     2.6170 H       4   all-H     0.3048
   1844 H          -14.2883    -7.6206     4.3867 H       4   all-H     0.1257
   1845 H          -11.3345    -5.8055     4.8549 H       4   all-H     0.0602
   1846 H          -15.0024     1.5167    -0.5408 H       4   all-H     0.0916
   1847 H          -12.7532     0.2888     0.0829 H       4   all-H     0.0665
   1848 H          -11.1473    -7.4883     5.6456 H       4   all-H     0.0602
   1849 H          -11.0156    -9.9913     5.8739 H       4   all-H     0.0471
   1850 H          -16.2331     1.5258     6.8265 H       4   all-H     0.1076
   1851 H          -14.5642     0.7021     4.3660 H       4   all-H     0.0593
   1852 H          -15.4372    -6.3018     7.9860 H       4   all-H     0.0944
   1853 H          -18.2989   -14.5000     5.7407 H       4   all-H     0.3173
   1854 H          -14.5988    -8.8081    10.4050 H       4   all-H     0.0915
   1855 H          -13.0957    -7.8161    10.8206 H       4   all-H     0.0631
   1856 H          -17.5649     1.2339     0.1093 H       4   all-H     0.0640
   1857 H          -18.0419    -0.1189     1.4324 H       4   all-H     0.1024
   1858 C          -18.3274   -12.6857     6.3032 C       3   Sp3-C     0.1091
   1859 C           18.0374   -11.5627     5.9077 C       2   Sp2-C    -0.0356
   1860 C           17.4832   -11.4752     4.6479 C       2   Sp2-C    -0.0643
   1861 C           17.9644   -12.5504     3.8772 C       2   Sp2-C    -0.0356
   1862 C          -17.3709   -14.2610     3.6039 C       2   Sp2-C     0.1254
   1863 O          -16.5489   -14.7995     4.6904 O       5   Sp2-O    -0.4927
   1864 C          -16.2016   -13.7364     5.4865 C       2   Sp2-C     0.1489
   1865 C          -17.1725   -12.5994     5.3120 C       3   Sp3-C     0.0062
   1866 C          -17.8262   -12.8426     3.8063 C       3   Sp3-C    -0.0092
   1867 C          -15.1359   -13.6015     6.2841 C       2   Sp2-C    -0.0001
   1868 C          -17.7637   -12.4165     7.7118 C       3   Sp3-C     0.0174
   1869 C           16.9341   -13.2477     2.9390 C       3   Sp3-C    -0.0267
   1870 C          -17.4392   -14.9320     2.4221 C       2   Sp2-C     0.0089
   1871 O           18.4678   -14.0537     6.3873 O       6   Sp3-O    -0.5941
   1872 C          -14.6665   -10.3208     7.6668 C       2   Sp2-C     0.1526
   1873 C          -13.7048   -11.1409     8.3953 C       2   Sp2-C    -0.0264
   1874 C          -13.7942   -12.4444     7.9539 C       2   Sp2-C    -0.0487
   1875 C          -14.8315   -12.4113     7.0173 C       2   Sp2-C     0.0939
   1876 O          -15.4703   -11.0820     6.7344 O       5   Sp2-O    -0.4964
   1877 O          -18.3591   -13.0455     1.0738 O       5   Sp2-O    -0.4833
   1878 C          -18.0102   -14.4015     1.1837 C       2   Sp2-C     0.1290
   1879 C          -18.0605   -15.3728     0.1566 C       2   Sp2-C    -0.0182
   1880 C          -18.4426   -14.7087    -0.9458 C       2   Sp2-C    -0.0075
   1881 C          -18.5953   -13.2549    -0.6306 C       2   Sp2-C     0.1764
   1882 O          -18.5058   -10.8346     9.4380 O       6   Sp3-O    -0.4755
   1883 C           15.7258   -11.3377    10.2238 C       2   Sp2-C     0.1417
   1884 C           16.3137   -12.5231     9.9169 C       2   Sp2-C    -0.0206
   1885 C           17.4851   -12.7381     8.8922 C       2   Sp2-C    -0.0082
   1886 C           18.4631   -12.0308     8.7061 C       2   Sp2-C     0.1332
   1887 C           15.6263   -13.8179     3.5894 C       2   Sp2-C     0.1443
   1888 C           15.8453   -14.1161     4.9170 C       2   Sp2-C    -0.0187
   1889 C           14.6763   -14.4621     5.6058 C       2   Sp2-C    -0.0369
   1890 C           13.7485   -14.2417     4.5250 C       2   Sp2-C     0.0967
   1891 O           14.3978   -13.8243     3.0994 O       5   Sp2-O    -0.4607
   1892 C           12.5907   -14.4647     4.8881 C       2   Sp2-C    -0.0252
   1893 C          -15.6394    -8.5211     6.9730 C       3   Sp3-C     0.0326
   1894 H           17.8370   -10.8189     6.6411 H       4   all-H     0.0641
   1895 H           16.6841   -10.8582     4.4235 H       4   all-H     0.0561
   1896 H          -16.7117   -11.6102     5.3994 H       4   all-H     0.1081
   1897 H          -17.3445   -12.2509     2.9857 H       4   all-H     0.0840
   1898 H          -14.4754   -14.4535     6.5159 H       4   all-H     0.1096
   1899 H          -17.1898   -13.2115     8.0994 H       4   all-H     0.0659
   1900 H          -16.9358   -11.6883     7.6043 H       4   all-H     0.1398
   1901 H           16.7169   -12.3304     2.3582 H       4   all-H     0.0560
   1902 H           17.4263   -13.9921     2.3248 H       4   all-H     0.1013
   1903 H          -17.0420   -15.9361     2.6304 H       4   all-H     0.0746
   1904 H          -13.0169   -10.8199     9.1487 H       4   all-H     0.0379
   1905 H          -13.1838   -13.2742     8.2431 H       4   all-H     0.0239
   1906 H          -17.8821   -16.4251     0.2231 H       4   all-H     0.0648
   1907 H          -18.5038   -15.1077    -1.9731 H       4   all-H     0.1274
   1908 H           15.8631   -13.3288    10.5288 H       4   all-H     0.0627
   1909 H           17.4146   -13.6705     8.2638 H       4   all-H     0.0950
   1910 H           16.8271   -13.9956     5.3827 H       4   all-H     0.1066
   1911 H           14.4953   -14.6918     6.6867 H       4   all-H     0.0535
   1912 H           12.3134   -14.7454     5.8933 H       4   all-H     0.0965
   1913 H           11.7875   -14.4074     4.2362 H       4   all-H     0.0971
   1914 H          -14.1930    -3.4797     6.2669 H       4   all-H     0.2785
   1915 H          -11.9173    -7.0774     8.9997 H       4   all-H     0.3191
   1916 C            6.5468   -16.6612     6.1334 C       2   Sp2-C     0.1582
   1917 C            7.2460   -17.8870     5.7285 C       2   Sp2-C    -0.0249
   1918 C            7.5135   -18.4218     4.5361 C       2   Sp2-C    -0.0299
   1919 C            7.1239   -17.9514     3.1942 C       2   Sp2-C     0.1455
   1920 C            7.8282   -18.6395     1.9536 C       3   Sp3-C    -0.0193
   1921 O            6.3347   -17.1169     2.9838 O       5   Sp2-O    -0.5026
   1922 O            6.2695   -16.3877     7.2383 O       5   Sp2-O    -0.4917
   1923 C            6.8759    18.4659     1.2751 C       2   Sp2-C     0.1280
   1924 C            5.5291    18.6776     1.4444 C       2   Sp2-C    -0.0225
   1925 C            4.8907    17.7076     0.6997 C       2   Sp2-C    -0.0465
   1926 C            5.9133    16.9349    -0.0044 C       2   Sp2-C     0.0780
   1927 O            7.3376    17.4532     0.4535 O       5   Sp2-O    -0.4809
   1928 C            5.7042    15.9958    -0.9078 C       2   Sp2-C    -0.0396
   1929 C            6.0472   -15.7221     5.0164 C       3   Sp3-C     0.0335
   1930 C            5.0406   -11.7290     6.8757 C       1   Sp1-C     0.1524
   1931 C            5.8865   -12.6618     7.4013 C       2   Sp2-C    -0.0283
   1932 C            6.1046   -13.9194     6.8157 C       2   Sp2-C     0.0008
   1933 C            5.4882   -14.3475     5.5903 C       2   Sp2-C     0.1941
   1934 O            4.8165   -13.8067     4.7912 O       5   Sp2-O    -0.4586
   1935 H            7.4712   -18.5103     6.6002 H       4   all-H     0.0727
   1936 H            8.0718    18.7927     4.5319 H       4   all-H     0.1177
   1937 H            8.0475   -17.9061     1.1769 H       4   all-H     0.0613
   1938 H            8.8276   -19.0325     2.2046 H       4   all-H     0.0553
   1939 H            5.1579   -18.6901     2.0629 H       4   all-H     0.0891
   1940 H            3.8613    17.5395     0.6700 H       4   all-H     0.0436
   1941 H            4.6623    15.8689    -1.1214 H       4   all-H     0.0569
   1942 H            6.4948    15.6036    -1.5218 H       4   all-H     0.1044
   1943 H            6.8905   -15.6406     4.2971 H       4   all-H     0.0823
   1944 H            5.2346   -16.2227     4.4940 H       4   all-H     0.1325
   1945 H            6.3565   -12.3458     8.3432 H       4   all-H     0.0531
   1946 H            6.8116   -14.5615     7.3589 H       4   all-H     0.1029
   1947 C           14.8393   -13.9876   -15.8771 C       2   Sp2-C     0.1988
   1948 C           15.6852   -14.9685   -15.1007 C       2   Sp2-C    -0.0012
   1949 C           16.8158   -15.4588   -15.4946 C       2   Sp2-C    -0.0019
   1950 C           17.6142   -14.9723   -16.6713 C       2   Sp2-C     0.2003
   1951 C          -18.2101   -15.4469   -16.8428 C       3   Sp3-C     0.0073
   1952 O           17.2692   -14.2024   -17.4436 O       5   Sp2-O    -0.4745
   1953 O           14.3292   -13.0208   -15.4991 O       5   Sp2-O    -0.4661
   1954 C          -17.6149   -16.0637   -15.5541 C       2   Sp2-C     0.1382
   1955 C          -16.6961   -17.1012   -15.7361 C       2   Sp2-C    -0.0228
   1956 C          -16.1614   -17.3226   -14.5278 C       2   Sp2-C    -0.0147
   1957 C          -16.7245   -16.3603   -13.5586 C       2   Sp2-C     0.1075
   1958 O          -17.7440   -15.4642   -14.3493 O       5   Sp2-O    -0.4477
   1959 C          -16.4715   -16.3321   -12.3210 C       2   Sp2-C    -0.0154
   1960 C           14.4261   -14.5442   -17.2842 C       3   Sp3-C     0.0277
   1961 C           11.5271   -17.2823   -16.9287 C       2   Sp2-C     0.1560
   1962 C           11.1708   -16.1658   -16.1859 C       2   Sp2-C    -0.0319
   1963 C           12.2237   -15.2564   -16.3054 C       2   Sp2-C    -0.0230
   1964 C           13.3097   -15.5816   -17.1924 C       2   Sp2-C     0.1709
   1965 O           13.6113   -16.5459   -17.8266 O       5   Sp2-O    -0.4823
   1966 H           15.2628   -15.1729   -14.0974 H       4   all-H     0.1251
   1967 H           17.2367   -16.1871   -14.8313 H       4   all-H     0.0769
   1968 H          -18.1583   -16.0414   -17.7284 H       4   all-H     0.0520
   1969 H          -17.5039   -14.7375   -17.2614 H       4   all-H     0.0951
   1970 H          -16.4806   -17.5575   -16.6619 H       4   all-H     0.0405
   1971 H          -15.4847   -18.0840   -14.2290 H       4   all-H     0.0617
   1972 H          -15.8444   -17.1071   -11.8628 H       4   all-H     0.0478
   1973 H          -17.0251   -15.6014   -11.6685 H       4   all-H     0.1621
   1974 H           14.0948   -13.6347   -17.8655 H       4   all-H     0.0768
   1975 H           15.3435   -14.8884   -17.8345 H       4   all-H     0.1125
   1976 H           10.2424   -16.0127   -15.6508 H       4   all-H     0.0478
   1977 H           12.1837   -14.2737   -15.9066 H       4   all-H     0.0739
   1978 C            7.7523   -16.1222    -6.0371 C       2   Sp2-C     0.1558
   1979 O            7.4496   -15.0766    -6.9525 O       5   Sp2-O    -0.4612
   1980 C            8.1285   -15.7594    -8.1661 C       2   Sp2-C     0.1079
   1981 C            8.6977   -17.0011    -7.9504 C       2   Sp2-C    -0.0252
   1982 C            8.3613   -17.2720    -6.6131 C       2   Sp2-C     0.0077
   1983 C            7.2700   -16.1702    -4.7189 C       2   Sp2-C     0.0420
   1984 C            8.5491   -15.4743   -10.6174 C       2   Sp2-C     0.1262
   1985 O            8.6578   -14.7405   -11.8099 O       5   Sp2-O    -0.4630
   1986 C            8.7536   -15.9571   -12.7645 C       2   Sp2-C     0.0952
   1987 C            8.8570   -17.2322   -12.0952 C       2   Sp2-C    -0.0367
   1988 C            8.7491   -16.8686   -10.7776 C       2   Sp2-C    -0.0258
   1989 C            8.1881   -14.9970    -9.3450 C       2   Sp2-C     0.0096
   1990 C            7.5256   -17.2592    -3.8566 C       2   Sp2-C     0.1679
   1991 C            6.9385   -17.2681    -2.6192 C       2   Sp2-C     0.0056
   1992 C            7.2473   -18.3992    -1.8513 C       2   Sp2-C    -0.0209
   1993 C            8.0938   -19.0481    -2.8354 C       2   Sp2-C     0.1290
   1994 O            8.3470   -18.3421    -4.1705 O       5   Sp2-O    -0.4764
   1995 C            8.4733    17.9803    -2.3571 C       2   Sp2-C    -0.0074
   1996 H            9.2067   -17.6462    -8.7013 H       4   all-H     0.0454
   1997 H            8.7066   -18.1696    -6.0963 H       4   all-H     0.1109
   1998 H            6.7049   -15.2581    -4.4658 H       4   all-H     0.1185
   1999 H            8.7242   -18.1981   -12.5190 H       4   all-H     0.0603
   2000 H            8.5807   -17.5851   -10.0291 H       4   all-H     0.0354
   2001 H            7.9674   -13.9095    -9.3535 H       4   all-H     0.0938
   2002 H            6.1458   -16.5464    -2.3099 H       4   all-H     0.0875
   2003 H            6.8183   -18.7313    -0.9365 H       4   all-H     0.0700
   2004 H            8.1518    17.6328    -1.3972 H       4   all-H     0.1071
   2005 H            9.1488    17.3200    -2.9385 H       4   all-H     0.0753
   2006 C            3.1541    -6.9637     2.3515 C       2   Sp2-C     0.1350
   2007 O            3.5176    -5.6838     1.9622 O       5   Sp2-O    -0.4865
   2008 C            4.9952    -5.9725     1.6650 C       2   Sp2-C     0.0878
   2009 C            5.3364    -7.3421     1.6325 C       2   Sp2-C    -0.0440
   2010 C            4.2046    -7.9616     2.1357 C       2   Sp2-C    -0.0189
   2011 C            1.9198    -7.2856     2.9029 C       2   Sp2-C     0.0033
   2012 C            7.3260    -5.2653     1.0516 C       2   Sp2-C     0.1356
   2013 O            8.0283    -4.5473     0.1376 O       6   Sp3-O    -0.5738
   2014 C           10.1808    -5.8064     1.8148 C       1   Sp1-C     0.1749
   2015 C            9.1190    -6.5634     2.1905 C       2   Sp2-C    -0.0118
   2016 C            7.6762    -6.0375     2.0956 C       2   Sp2-C    -0.0320
   2017 C            5.9087    -4.9917     1.2416 C       2   Sp2-C    -0.0120
   2018 C            1.4164    -8.5851     3.1116 C       2   Sp2-C     0.1016
   2019 C            0.1355    -8.7256     3.6642 C       2   Sp2-C    -0.0214
   2020 C           -0.0828   -10.0969     3.6438 C       2   Sp2-C    -0.0222
   2021 C            1.0621   -10.7410     2.9984 C       2   Sp2-C     0.1086
   2022 O            2.1380    -9.8247     2.6467 O       5   Sp2-O    -0.4867
   2023 C            1.0514   -12.0415     2.8165 C       2   Sp2-C    -0.0205
   2024 H            6.2566    -7.8077     1.3414 H       4   all-H     0.0617
   2025 H            4.0660    -9.0503     2.1588 H       4   all-H     0.0898
   2026 H            1.2878    -6.4131     3.1264 H       4   all-H     0.0762
   2027 H            9.2046    -7.4723     2.7704 H       4   all-H     0.0687
   2028 H            7.0041    -6.2509     2.8675 H       4   all-H     0.0362
   2029 H            5.5251    -3.9841     1.1914 H       4   all-H     0.0570
   2030 H           -0.5478    -7.9653     4.0498 H       4   all-H     0.1250
   2031 H           -0.9181   -10.6100     3.9392 H       4   all-H     0.0647
   2032 H            0.1433   -12.6246     3.0656 H       4   all-H     0.0497
   2033 H            1.9400   -12.4713     2.4177 H       4   all-H     0.1018
   2034 C            3.7595   -15.9090    13.5202 C       2   Sp2-C     0.1105
   2035 O            4.5220   -15.3705    14.8244 O       5   Sp2-O    -0.4300
   2036 C            3.7901   -14.2061    14.8812 C       2   Sp2-C     0.1512
   2037 C            2.8054   -13.8858    13.9777 C       2   Sp2-C    -0.0104
   2038 C            2.7844   -14.9213    13.1022 C       2   Sp2-C    -0.0189
   2039 C            4.0300   -17.0727    12.8883 C       1   Sp1-C    -0.0184
   2040 C            3.9146   -13.0819    15.8560 C       2   Sp2-C     0.0092
   2041 H            2.1943   -13.0017    13.9689 H       4   all-H     0.0776
   2042 H            2.0732   -14.9638    12.2494 H       4   all-H     0.0707
   2043 H            4.0099   -17.7441    12.0583 H       4   all-H     0.0408
   2044 H            3.2460   -12.2659    15.6109 H       4   all-H     0.0839
   2045 C           11.0097    18.3232   -16.1406 C       2   Sp2-C     0.1023
   2046 O           10.9213   -18.7671   -17.4240 O       6   Sp3-O    -0.4394
   2047 C           11.7465    18.2596   -18.3564 C       3   Sp3-C     0.1354
   2048 C           12.1928    16.9924   -17.6818 C       2   Sp2-C    -0.0010
   2049 C           11.6733    17.0171   -16.3530 C       2   Sp2-C    -0.0135
   2050 C           10.4968    18.4849   -14.9687 C       1   Sp1-C    -0.0208
   2051 C           12.0397    18.3077    19.0178 C       1   Sp1-C     0.0214
   2052 H           12.6951    16.2008   -18.1938 H       4   all-H     0.0767
   2053 H           11.7786    16.2818   -15.5182 H       4   all-H     0.0563
   2054 H           10.0714    18.4855   -13.9933 H       4   all-H     0.0652
   2055 H           12.2101    18.5584    17.9664 H       4   all-H     0.0790
   2056 C            0.9482    -4.0124    -4.4402 C       3   Sp3-C     0.0648
   2057 C            0.0009    -5.0318    -3.9637 C       2   Sp2-C    -0.0254
   2058 C            0.6196    -6.1113    -4.3487 C       2   Sp2-C    -0.0041
   2059 C            1.9693    -5.7741    -5.0500 C       3   Sp3-C     0.1420
   2060 C            2.5275    -4.8047    -7.4234 C       2   Sp2-C     0.1577
   2061 O            2.8177    -3.4334    -7.3771 O       5   Sp2-O    -0.4947
   2062 C            1.7041    -2.8694    -6.6340 C       2   Sp2-C     0.1407
   2063 C            0.7559    -3.8534    -5.9968 C       3   Sp3-C    -0.0070
   2064 C            1.5054    -5.2697    -6.4260 C       3   Sp3-C     0.0282
   2065 C            1.4983    -1.5473    -6.7193 C       2   Sp2-C     0.0350
   2066 C            0.7511    -2.6588    -3.6551 C       3   Sp3-C    -0.0157
   2067 C            2.9764    -7.0457    -5.1236 C       3   Sp3-C     0.0082
   2068 C            3.1072    -5.6421    -8.3389 C       2   Sp2-C     0.0057
   2069 O            2.5119    -4.6221    -4.5135 O       5   Sp2-O    -0.4846
   2070 C           -0.7269     0.8006    -5.0199 C       2   Sp2-C     0.2219
   2071 C           -1.4905    -0.5424    -5.0606 C       2   Sp2-C    -0.0136
   2072 C           -0.8134    -1.4195    -5.7622 C       2   Sp2-C    -0.0377
   2073 C            0.3713    -0.7385    -6.2338 C       2   Sp2-C     0.1444
   2074 O            0.4308     0.6048    -6.2311 O       5   Sp2-O    -0.4379
   2075 O            1.9253    -7.7655    -7.7466 O       5   Sp2-O    -0.5071
   2076 C            2.8564    -7.0162    -8.3594 C       2   Sp2-C     0.1426
   2077 C            3.7972    -7.6154    -9.2524 C       2   Sp2-C    -0.0261
   2078 C            3.6960    -9.0252    -9.2411 C       2   Sp2-C    -0.0171
   2079 C            2.5593    -9.1437    -8.3885 C       2   Sp2-C     0.1026
   2080 O            0.3606    -2.1159    -1.1826 O       5   Sp2-O    -0.4856
   2081 C            1.0161    -2.8741     0.0238 C       2   Sp2-C     0.1097
   2082 C            1.8238    -4.0191    -0.4467 C       2   Sp2-C    -0.0230
   2083 C            1.6758    -4.0555    -1.8330 C       2   Sp2-C    -0.0056
   2084 C            0.9073    -2.9402    -2.1270 C       2   Sp2-C     0.1489
   2085 C            3.0837    -7.8119    -3.7882 C       2   Sp2-C     0.1544
   2086 C            2.6605    -9.1291    -3.8972 C       2   Sp2-C    -0.0080
   2087 C            2.4326    -9.5738    -2.6565 C       2   Sp2-C    -0.0340
   2088 C            2.6591    -8.4868    -1.6453 C       3   Sp3-C     0.0579
   2089 O            3.2025    -7.2029    -2.6268 O       5   Sp2-O    -0.4609
   2090 C            1.0715    -2.7997     1.2462 C       2   Sp2-C    -0.0231
   2091 C            2.2415   -10.3706    -8.2785 C       2   Sp2-C    -0.0295
   2092 H           -0.9668    -4.8825    -3.4983 H       4   all-H     0.1108
   2093 H            0.3319    -7.0891    -4.2025 H       4   all-H     0.1184
   2094 H           -0.2909    -3.8854    -6.2803 H       4   all-H     0.0477
   2095 H            0.9502    -6.0176    -6.8899 H       4   all-H     0.0823
   2096 H            2.2515    -1.0627    -7.2202 H       4   all-H     0.1475
   2097 H            1.4487    -1.8732    -3.9883 H       4   all-H     0.1047
   2098 H           -0.2009    -2.2799    -3.8028 H       4   all-H     0.0577
   2099 H            2.5601    -7.6046    -6.0071 H       4   all-H     0.1059
   2100 H            3.9246    -6.6376    -5.5015 H       4   all-H     0.1468
   2101 H            3.8493    -5.0702    -8.9547 H       4   all-H     0.0580
   2102 H           -2.3396    -0.7383    -4.4418 H       4   all-H     0.0673
   2103 H           -1.0453    -2.4712    -5.8063 H       4   all-H     0.0420
   2104 H            4.6514    -7.0912    -9.7149 H       4   all-H     0.0369
   2105 H            4.3376    -9.7798    -9.6454 H       4   all-H     0.0842
   2106 H            2.4185    -4.7433     0.1654 H       4   all-H     0.0916
   2107 H            2.1456    -4.7452    -2.5303 H       4   all-H     0.1270
   2108 H            2.5013    -9.6090    -4.8437 H       4   all-H     0.0753
   2109 H            2.1142   -10.5750    -2.3768 H       4   all-H     0.0440
   2110 H            1.5911    -3.4758     1.8876 H       4   all-H     0.0677
   2111 H            0.5738    -2.0076     1.7353 H       4   all-H     0.0743
   2112 H            2.8193   -11.1358    -8.7651 H       4   all-H     0.0635
   2113 H            1.4340   -10.6480    -7.6563 H       4   all-H     0.0604
   2114 C           -2.0099   -10.7441    -2.0278 C       3   Sp3-C     0.1265
   2115 C           -1.3157   -11.8272    -2.8842 C       2   Sp2-C    -0.0172
   2116 C           -1.7989   -13.0170    -2.6687 C       2   Sp2-C    -0.0084
   2117 C           -2.8353   -12.6592    -1.6765 C       3   Sp3-C     0.1029
   2118 C           -2.8149   -12.3726     0.9462 C       2   Sp2-C     0.1535
   2119 O           -2.9993   -11.0392     1.2904 O       5   Sp2-O    -0.4643
   2120 C           -2.0820   -10.3148     0.4924 C       2   Sp2-C     0.1493
   2121 C           -1.4230   -11.1232    -0.5969 C       3   Sp3-C     0.0016
   2122 C           -2.0173   -12.4873    -0.3454 C       3   Sp3-C     0.0286
   2123 C           -1.8639    -8.9694     0.6301 C       2   Sp2-C     0.0054
   2124 C           -1.4614    -9.3010    -2.4687 C       3   Sp3-C    -0.0168
   2125 C           -3.9476   -13.7350    -1.5307 C       3   Sp3-C    -0.0003
   2126 C           -3.3078   -13.4439     1.6060 C       2   Sp2-C    -0.0088
   2127 O           -3.3267   -11.0277    -1.8999 O       5   Sp2-O    -0.4432
   2128 C            0.5450    -6.9095    -1.2227 C       2   Sp2-C     0.1353
   2129 C            1.3380    -8.1069    -1.0478 C       2   Sp2-C     0.0036
   2130 C            0.4789    -8.8298    -0.2129 C       2   Sp2-C    -0.0328
   2131 C           -0.7693    -8.2493     0.0049 C       2   Sp2-C     0.1117
   2132 O           -0.8765    -6.9640    -0.5314 O       5   Sp2-O    -0.4753
   2133 O           -1.9608   -15.1249     0.4259 O       5   Sp2-O    -0.4628
   2134 C           -2.9957   -14.7883     1.2411 C       2   Sp2-C     0.1176
   2135 C           -3.8225   -15.8251     1.7973 C       2   Sp2-C    -0.0440
   2136 C           -3.4072   -17.1111     1.3655 C       2   Sp2-C    -0.0228
   2137 C           -2.3033   -16.7082     0.5657 C       2   Sp2-C     0.0995
   2138 O           -0.6047    -8.8032    -4.7679 O       5   Sp2-O    -0.4700
   2139 C           -1.3521    -9.0891    -6.2784 C       2   Sp2-C     0.0814
   2140 C           -2.6934    -9.4456    -5.8780 C       2   Sp2-C    -0.0272
   2141 C           -2.8216    -9.6696    -4.5125 C       2   Sp2-C    -0.0084
   2142 C           -1.5972    -9.2859    -3.9935 C       2   Sp2-C     0.1401
   2143 C           -4.8811   -13.7463    -2.7718 C       2   Sp2-C     0.1673
   2144 C           -6.2360   -13.8495    -2.3980 C       2   Sp2-C    -0.0245
   2145 C           -6.9303   -14.0119    -3.5423 C       2   Sp2-C     0.0046
   2146 C           -5.9788   -13.8843    -4.7123 C       2   Sp2-C     0.2269
   2147 O           -4.4328   -13.8283    -4.0043 O       5   Sp2-O    -0.4358
   2148 C           -0.8534    -8.9619    -7.3694 C       2   Sp2-C    -0.0307
   2149 C           -1.7789   -17.7091    -0.0026 C       2   Sp2-C    -0.0082
   2150 H           -0.4993   -11.5719    -3.5628 H       4   all-H     0.0695
   2151 H           -1.5440   -13.9612    -3.1160 H       4   all-H     0.0700
   2152 H           -0.3192   -10.9770    -0.5644 H       4   all-H     0.0239
   2153 H           -1.2812   -13.2734    -0.2228 H       4   all-H     0.1248
   2154 H           -2.3637    -8.4880     1.3991 H       4   all-H     0.0729
   2155 H           -1.9431    -8.5052    -1.9257 H       4   all-H     0.0875
   2156 H           -0.4835    -9.0839    -2.0749 H       4   all-H     0.0598
   2157 H           -3.5551   -14.7775    -1.4995 H       4   all-H     0.0871
   2158 H           -4.5512   -13.5010    -0.6008 H       4   all-H     0.0519
   2159 H           -3.9664   -13.1877     2.4056 H       4   all-H     0.0547
   2160 H            3.3504    -8.7371    -0.8383 H       4   all-H     0.0624
   2161 H            0.7701    -9.7700     0.2484 H       4   all-H     0.0456
   2162 H           -4.6131   -15.6779     2.5121 H       4   all-H     0.0271
   2163 H           -3.8069   -18.1126     1.6254 H       4   all-H     0.0892
   2164 H           -3.5245    -9.5218    -6.5701 H       4   all-H     0.0421
   2165 H           -3.6365    -9.9899    -3.9234 H       4   all-H     0.0949
   2166 H           -6.5534   -13.8846    -1.3538 H       4   all-H     0.0463
   2167 H           -8.0099   -14.2151    -3.6541 H       4   all-H     0.1027
   2168 H           -1.4485    -9.2501    -8.2433 H       4   all-H     0.0446
   2169 H            0.2423    -8.7234    -7.4905 H       4   all-H     0.1268
   2170 H           -2.1723   -18.7475     0.0167 H       4   all-H     0.1258
   2171 H           -0.8693   -17.5358    -0.5562 H       4   all-H     0.1226
   2172 C            5.3147    -2.2047    -2.2871 C       3   Sp3-C     0.1043
   2173 C            4.9331    -3.5750    -1.6655 C       2   Sp2-C    -0.0277
   2174 C            5.2095    -4.7785    -2.1701 C       2   Sp2-C    -0.0152
   2175 C            5.8872    -4.5458    -3.3742 C       2   Sp2-C    -0.0026
   2176 C            6.0833    -3.1891    -5.5092 C       2   Sp2-C     0.1554
   2177 O            6.3242    -1.8338    -5.2590 O       5   Sp2-O    -0.4914
   2178 C            5.2079    -1.3037    -4.5927 C       2   Sp2-C     0.1441
   2179 C            4.6362    -2.3314    -3.6863 C       3   Sp3-C     0.0058
   2180 C            5.2249    -3.6507    -4.3661 C       3   Sp3-C     0.0232
   2181 C            4.6226    -0.0978    -4.8111 C       2   Sp2-C    -0.0006
   2182 C            4.6043    -1.2553    -1.4133 C       3   Sp3-C     0.0114
   2183 C            7.0235    -5.5059    -3.7248 C       3   Sp3-C    -0.0293
   2184 C            6.3986    -3.8918    -6.5786 C       2   Sp2-C     0.0190
   2185 O            6.7500    -1.8258    -2.2197 O       6   Sp3-O    -0.5832
   2186 C            1.6923     0.9249    -2.7985 C       2   Sp2-C     0.1106
   2187 C            2.0781     2.0527    -3.6586 C       2   Sp2-C     0.0011
   2188 C            3.1310     1.7420    -4.4803 C       2   Sp2-C    -0.0177
   2189 C            3.4199     0.4177    -4.1753 C       2   Sp2-C     0.1337
   2190 O            2.6608    -0.2840    -3.2331 O       5   Sp2-O    -0.5018
   2191 O            5.5796    -6.1107    -5.9966 O       5   Sp2-O    -0.5061
   2192 C            6.1261    -5.3381    -6.7740 C       2   Sp2-C     0.1717
   2193 C            6.7993    -5.8098    -7.9378 C       2   Sp2-C    -0.0109
   2194 C            7.0822    -7.1732    -8.1536 C       2   Sp2-C    -0.0247
   2195 C            6.7337    -8.2148    -7.2712 C       1   Sp1-C     0.0064
   2196 O            4.9864    -0.0386     0.5011 O       5   Sp2-O    -0.4855
   2197 C            6.6627    -0.9380     2.4371 C       1   Sp1-C     0.1487
   2198 C            7.3981    -1.5776     1.4977 C       2   Sp2-C    -0.0250
   2199 C            6.6256    -1.7477     0.2501 C       2   Sp2-C     0.0124
   2200 C            5.4406    -0.9572    -0.0623 C       2   Sp2-C     0.1872
   2201 C            7.6270    -6.2495    -2.4811 C       3   Sp3-C     0.0658
   2202 C            6.7907    -7.3016    -1.7747 C       2   Sp2-C    -0.0275
   2203 C            8.7345    -8.1103    -1.6272 C       2   Sp2-C     0.0243
   2204 C            9.7177    -7.0057    -1.2535 C       2   Sp2-C     0.1220
   2205 O            9.1500    -5.7523    -1.7628 O       5   Sp2-O    -0.5191
   2206 C           10.8514    -7.2125    -0.7031 C       2   Sp2-C    -0.0191
   2207 C            0.9050     0.7891    -1.8939 C       2   Sp2-C     0.0024
   2208 H            4.5195    -3.5314    -0.6270 H       4   all-H     0.0404
   2209 H            5.1153    -5.6944    -1.6709 H       4   all-H     0.0831
   2210 H            3.5582    -2.1951    -3.6014 H       4   all-H     0.0925
   2211 H            4.3969    -4.2033    -4.7949 H       4   all-H     0.1493
   2212 H            5.2029     0.5148    -5.4368 H       4   all-H     0.0575
   2213 H            4.3960    -0.3634    -1.9360 H       4   all-H     0.1016
   2214 H            3.5986    -1.5471    -1.2321 H       4   all-H     0.0669
   2215 H            6.5757    -6.2597    -4.4935 H       4   all-H     0.1217
   2216 H            7.8707    -5.0115    -4.2055 H       4   all-H     0.0673
   2217 H            6.9719    -3.3418    -7.3197 H       4   all-H     0.0655
   2218 H            1.6746     3.0999    -3.6060 H       4   all-H     0.0593
   2219 H            3.7209     2.4431    -5.0838 H       4   all-H     0.0269
   2220 H            7.1231    -5.1096    -8.6363 H       4   all-H     0.0528
   2221 H            7.7570    -7.3720    -9.0103 H       4   all-H     0.1065
   2222 H            8.4297    -1.8569     1.6376 H       4   all-H     0.0611
   2223 H            7.0317    -2.4557    -0.4842 H       4   all-H     0.1542
   2224 H            5.7681    -7.6065    -1.9284 H       4   all-H     0.0748
   2225 H            6.2059   -13.9179    -0.7127 H       4   all-H     0.3052
   2226 H           11.1087    -8.2280    -0.3801 H       4   all-H     0.0932
   2227 H           11.5251    -6.4607    -0.4592 H       4   all-H     0.0814
   2228 H            0.1692     1.4857    -1.5686 H       4   all-H     0.0923
   2229 H            0.9026    -0.1551    -1.3604 H       4   all-H     0.1301
   2230 C            5.5151   -12.1166    -0.4139 C       3   Sp3-C     0.1105
   2231 C            4.1031   -11.7999     0.1166 C       2   Sp2-C    -0.0260
   2232 C            2.9052   -12.0796    -0.3773 C       2   Sp2-C    -0.0343
   2233 C            3.0634   -12.9366    -1.4672 C       2   Sp2-C    -0.0212
   2234 C            4.4977   -14.0153    -3.2545 C       2   Sp2-C     0.1446
   2235 O            5.7401   -14.3817    -2.8724 O       5   Sp2-O    -0.5220
   2236 C            6.4793   -13.1238    -2.6275 C       2   Sp2-C     0.1220
   2237 C            5.4596   -12.1535    -2.0293 C       3   Sp3-C    -0.0056
   2238 C            4.1155   -12.7816    -2.5147 C       3   Sp3-C    -0.0092
   2239 C            7.7809   -12.8804    -2.8693 C       2   Sp2-C    -0.0083
   2240 C            6.5249   -11.0270    -0.1278 C       3   Sp3-C     0.0125
   2241 C            2.0613   -14.0851    -1.6881 C       3   Sp3-C    -0.0244
   2242 C            3.7744   -14.5889    -4.2602 C       2   Sp2-C    -0.0067
   2243 O            6.1190   -13.3280     0.0628 O       6   Sp3-O    -0.5851
   2244 C            8.7130    -9.4734    -2.1718 C       2   Sp2-C     0.1194
   2245 C            9.9790   -10.1703    -2.1633 C       2   Sp2-C    -0.0204
   2246 C            9.7670   -11.5241    -2.4733 C       2   Sp2-C    -0.0337
   2247 C            8.4038   -11.5915    -2.6698 C       2   Sp2-C     0.0999
   2248 O            7.5782   -10.3564    -2.5437 O       5   Sp2-O    -0.4975
   2249 O            2.1837   -12.7472    -4.6714 O       5   Sp2-O    -0.4781
   2250 C            2.6609   -13.9819    -4.9666 C       2   Sp2-C     0.1225
   2251 C            2.1115   -14.6469    -6.0661 C       2   Sp2-C    -0.0271
   2252 C            1.1189   -13.8793    -6.6940 C       2   Sp2-C    -0.0219
   2253 C            1.1428   -12.6969    -5.9326 C       2   Sp2-C     0.0958
   2254 O            7.8906   -10.1627     1.4734 O       5   Sp2-O    -0.4787
   2255 C            7.6847   -10.7415     4.0361 C       2   Sp2-C     0.1455
   2256 C            6.5997   -11.5330     3.7412 C       2   Sp2-C    -0.0125
   2257 C            6.3292   -11.7473     2.3456 C       2   Sp2-C     0.0024
   2258 C            7.0240   -10.9442     1.3437 C       2   Sp2-C     0.1773
   2259 C            1.8661   -14.6855    -0.2285 C       2   Sp2-C     0.1705
   2260 C            2.5472   -15.8561    -0.0461 C       2   Sp2-C     0.0048
   2261 C            2.1303   -16.3267     1.1685 C       2   Sp2-C     0.0040
   2262 C            1.1709   -15.3299     1.6851 C       2   Sp2-C     0.1212
   2263 O            1.0485   -14.0936     0.6408 O       5   Sp2-O    -0.4596
   2264 C            0.5601   -15.4928     2.7152 C       2   Sp2-C    -0.0149
   2265 C            7.7792    -7.6688    -2.5300 C       2   Sp2-C     0.0140
   2266 H            4.0065   -11.2471     1.0133 H       4   all-H     0.0620
   2267 H            1.9045   -11.8240     0.0959 H       4   all-H     0.0791
   2268 H            5.5914   -11.1131    -2.3755 H       4   all-H     0.0750
   2269 H            3.7023   -12.1149    -3.3226 H       4   all-H     0.0866
   2270 H            8.2009   -13.8794    -2.9705 H       4   all-H     0.0668
   2271 H            7.4286   -10.9934    -0.7769 H       4   all-H     0.1239
   2272 H            6.0058   -10.0662    -0.3824 H       4   all-H     0.0536
   2273 H            1.1877   -13.8801    -2.3027 H       4   all-H     0.0644
   2274 H            2.4037   -14.8119    -2.3986 H       4   all-H     0.0426
   2275 H            4.0746   -15.5192    -4.7663 H       4   all-H     0.0622
   2276 H           10.9376    -9.7369    -1.9730 H       4   all-H     0.0706
   2277 H           10.4305   -12.3116    -2.4900 H       4   all-H     0.0522
   2278 H            2.5374   -15.5896    -6.4212 H       4   all-H     0.0440
   2279 H            0.4581   -14.0350    -7.5066 H       4   all-H     0.0921
   2280 H            6.0807   -12.0127     4.5807 H       4   all-H     0.1030
   2281 H            5.4635   -12.4310     2.1618 H       4   all-H     0.1076
   2282 H            3.3138   -16.3907    -0.6761 H       4   all-H     0.0552
   2283 H            2.4282   -17.2632     1.6574 H       4   all-H     0.0851
   2284 H            0.7750   -16.3979     3.3200 H       4   all-H     0.1034
   2285 H           -0.1613   -14.8502     3.1230 H       4   all-H     0.0498
   2286 H            6.9635    -1.6752    -3.1871 H       4   all-H     0.3101
   2287 H            8.2400    -5.2451    -0.6960 H       4   all-H     0.3590
   2288 C          -11.4015     0.1557     5.7235 C       2   Sp2-C     0.1798
   2289 C          -11.4265    -1.3069     5.3504 C       2   Sp2-C    -0.0089
   2290 C          -10.3590    -2.0554     5.2107 C       2   Sp2-C    -0.0059
   2291 C           -8.9292    -1.6375     5.3046 C       2   Sp2-C     0.1889
   2292 C           -7.8720    -2.6416     4.6731 C       3   Sp3-C    -0.0057
   2293 O           -8.4872    -0.6013     5.5932 O       5   Sp2-O    -0.4963
   2294 O          -11.9664     1.0690     5.2748 O       5   Sp2-O    -0.4692
   2295 C           -8.0523    -3.9941     5.3815 C       2   Sp2-C     0.1242
   2296 C           -7.8221    -5.0920     4.6342 C       2   Sp2-C    -0.0414
   2297 C           -8.2580    -6.1595     5.3450 C       2   Sp2-C    -0.0412
   2298 C           -8.7255    -5.6978     6.6375 C       2   Sp2-C     0.0974
   2299 O           -8.5823    -4.1569     6.6748 O       5   Sp2-O    -0.4862
   2300 C           -9.2310    -6.5229     7.5435 C       2   Sp2-C    -0.0407
   2301 C          -10.7522     0.3201     7.0985 C       3   Sp3-C     0.0289
   2302 C          -13.6794    -0.6874    10.2682 C       2   Sp2-C     0.1700
   2303 C          -14.0973    -0.4689     8.9693 C       2   Sp2-C    -0.0028
   2304 C          -13.1430    -0.3019     7.8952 C       2   Sp2-C     0.0001
   2305 C          -11.7839     0.0068     8.2193 C       2   Sp2-C     0.1783
   2306 O          -11.3211    -0.0333     9.3110 O       5   Sp2-O    -0.4875
   2307 H          -12.4773    -1.6195     5.1855 H       4   all-H     0.1343
   2308 H          -10.4295    -3.1184     5.0359 H       4   all-H     0.0966
   2309 H           -7.8957    -2.7761     3.6038 H       4   all-H     0.0255
   2310 H           -6.7890    -2.2675     4.6764 H       4   all-H     0.1063
   2311 H           -7.4626    -5.0585     3.6287 H       4   all-H     0.0203
   2312 H           -8.3512    -7.1783     5.0165 H       4   all-H     0.0310
   2313 H           -9.1969    -7.5572     7.4642 H       4   all-H     0.0324
   2314 H           -9.6178    -6.1069     8.4642 H       4   all-H     0.1054
   2315 H           -9.9809    -0.4727     7.1205 H       4   all-H     0.0887
   2316 H          -10.2775     1.2197     7.2638 H       4   all-H     0.1145
   2317 H          -15.2120    -0.5637     8.8957 H       4   all-H     0.0790
   2318 H          -13.5292    -0.2865     6.9053 H       4   all-H     0.0793
   2319 C          -12.5498   -14.6430   -15.9113 C       2   Sp2-C     0.1809
   2320 C          -12.0961   -13.6291   -14.9100 C       2   Sp2-C    -0.0139
   2321 C          -11.1001   -12.7882   -15.0839 C       2   Sp2-C    -0.0315
   2322 C          -10.4781   -12.6024   -16.3819 C       2   Sp2-C     0.1682
   2323 C           -9.5429   -11.3521   -16.2182 C       3   Sp3-C    -0.0163
   2324 O          -10.6028   -13.2369   -17.3564 O       5   Sp2-O    -0.5060
   2325 O          -13.6660   -14.9505   -16.0391 O       5   Sp2-O    -0.4745
   2326 C           -9.3712   -10.6644   -17.5825 C       2   Sp2-C     0.1502
   2327 C          -10.2801   -10.9475   -18.5801 C       2   Sp2-C     0.0068
   2328 C           -9.8808   -10.1998    18.9365 C       2   Sp2-C    -0.0121
   2329 C           -8.6479    -9.4698    19.2169 C       2   Sp2-C     0.0999
   2330 O           -8.3323    -9.8228   -17.7972 O       5   Sp2-O    -0.4627
   2331 C           -7.9581    -8.7670    18.5156 C       2   Sp2-C    -0.0070
   2332 C          -11.6997   -15.5851   -16.8598 C       3   Sp3-C     0.0371
   2333 C          -12.6933    18.1972   -16.0400 C       1   Sp1-C    -0.0136
   2334 C          -12.7919   -18.7739   -15.1508 C       2   Sp2-C    -0.0409
   2335 C          -12.5878   -17.3757   -15.5360 C       2   Sp2-C    -0.0012
   2336 C          -11.9908   -16.9923   -16.6828 C       2   Sp2-C     0.1644
   2337 O          -11.5051   -17.7109   -17.7047 O       6   Sp3-O    -0.4911
   2338 H          -12.6683   -13.6469   -13.9907 H       4   all-H     0.0561
   2339 H          -10.7852   -12.0920   -14.3689 H       4   all-H     0.0292
   2340 H           -9.7556   -10.6305   -15.3947 H       4   all-H     0.0358
   2341 H           -8.6651   -11.5301   -15.6819 H       4   all-H     0.0684
   2342 H          -11.1273   -11.5610   -18.4812 H       4   all-H     0.1036
   2343 H          -10.3425   -10.1669    17.9171 H       4   all-H     0.0614
   2344 H           -8.1553    -8.5996    17.4724 H       4   all-H     0.0981
   2345 H           -7.0420    -8.3060    18.8431 H       4   all-H     0.0654
   2346 H          -11.9568   -15.2270   -17.8718 H       4   all-H     0.1113
   2347 H          -10.6191   -15.2737   -16.8412 H       4   all-H     0.0899
   2348 H          -13.1594   -18.8737   -14.1508 H       4   all-H     0.0435
   2349 H          -12.7953   -16.5145   -14.8271 H       4   all-H     0.0767
   2350 C          -13.2999     8.7927     9.9081 C       2   Sp2-C     0.1544
   2351 O          -12.2488     9.4749     9.3541 O       5   Sp2-O    -0.4804
   2352 C          -12.6413    10.8654     9.8706 C       2   Sp2-C     0.1132
   2353 C          -13.7460    10.9187    10.6693 C       2   Sp2-C    -0.0134
   2354 C          -14.1762     9.5750    10.7300 C       2   Sp2-C     0.0061
   2355 C          -13.4891     7.4242     9.7836 C       2   Sp2-C     0.0128
   2356 C          -11.7926    13.1921    10.3497 C       2   Sp2-C     0.1009
   2357 O          -10.5309    14.1266     9.9265 O       5   Sp2-O    -0.4617
   2358 C          -10.9363    15.0942    11.0822 C       2   Sp2-C     0.1241
   2359 C          -11.9997    14.6819    11.9538 C       2   Sp2-C    -0.0172
   2360 C          -12.5880    13.4834    11.4097 C       2   Sp2-C    -0.0335
   2361 C          -11.7734    11.9835     9.6422 C       2   Sp2-C     0.0168
   2362 C          -14.4685     6.6251    10.4592 C       2   Sp2-C     0.1197
   2363 C          -14.5058     5.2648    10.1125 C       2   Sp2-C    -0.0145
   2364 C          -15.5199     4.7496    10.8564 C       2   Sp2-C    -0.0103
   2365 C          -16.0231     5.7895    11.7784 C       2   Sp2-C     0.1242
   2366 O          -15.3743     7.1082    11.4931 O       5   Sp2-O    -0.4879
   2367 C          -16.8890     5.4711    12.7278 C       2   Sp2-C    -0.0174
   2368 H          -14.3198    11.6841    11.1382 H       4   all-H     0.0799
   2369 H          -15.0461     9.1730    11.2634 H       4   all-H     0.1081
   2370 H          -12.7942     6.8503     9.1604 H       4   all-H     0.0676
   2371 H          -12.3435    15.2000    12.8664 H       4   all-H     0.1110
   2372 H          -13.4271    12.9451    11.7942 H       4   all-H     0.0477
   2373 H          -11.0407    12.0265     8.8500 H       4   all-H     0.0883
   2374 H          -13.8732     4.7894     9.3657 H       4   all-H     0.0940
   2375 H          -15.8846     3.6969    10.8973 H       4   all-H     0.1100
   2376 H          -17.2280     4.4772    12.8377 H       4   all-H     0.0647
   2377 H          -17.3167     6.2455    13.3486 H       4   all-H     0.1120
   2378 C           18.2697    18.3188     6.4024 C       2   Sp2-C     0.1316
   2379 O          -18.4636    17.2326     5.7249 O       5   Sp2-O    -0.4723
   2380 C          -16.9849    17.6127     6.3766 C       2   Sp2-C     0.0753
   2381 C          -16.9474    18.6735     7.2314 C       2   Sp2-C    -0.0393
   2382 C          -18.2652   -18.9664     7.2472 C       2   Sp2-C    -0.0099
   2383 C           16.8816    18.5747     6.3849 C       2   Sp2-C     0.0043
   2384 C          -14.5680    17.1013     6.3070 C       2   Sp2-C     0.1177
   2385 O          -13.7001    15.9853     6.0858 O       5   Sp2-O    -0.5038
   2386 C          -12.4076    16.7241     6.5843 C       2   Sp2-C     0.1187
   2387 C          -12.7127    18.0793     6.9156 C       2   Sp2-C     0.0004
   2388 C          -14.0846    18.3325     6.6727 C       2   Sp2-C    -0.0246
   2389 C          -15.9663    16.8186     5.9542 C       2   Sp2-C     0.0043
   2390 C           16.2075   -18.5634     7.1214 C       2   Sp2-C     0.1096
   2391 C           14.8422   -18.2911     6.8048 C       2   Sp2-C    -0.0230
   2392 C           14.4479   -17.3797     7.7239 C       2   Sp2-C    -0.0366
   2393 C           15.6018   -17.0203     8.5622 C       2   Sp2-C     0.1105
   2394 O           16.8779   -17.7357     8.1848 O       5   Sp2-O    -0.4684
   2395 C           15.5005   -16.1292     9.4696 C       2   Sp2-C    -0.0371
   2396 H          -16.0712   -19.0092     7.7053 H       4   all-H     0.0439
   2397 H          -18.6076   -18.0712     7.7913 H       4   all-H     0.1161
   2398 H           16.2888    17.8808     5.7288 H       4   all-H     0.1028
   2399 H          -11.9656    18.8149     7.1528 H       4   all-H     0.1233
   2400 H          -14.6935   -18.9034     6.7203 H       4   all-H     0.0672
   2401 H          -16.1164    15.8879     5.4053 H       4   all-H     0.1010
   2402 H           14.1930   -18.7384     6.0557 H       4   all-H     0.0719
   2403 H           13.4520   -16.9820     7.8373 H       4   all-H     0.0428
   2404 H           14.5605   -15.6435     9.7322 H       4   all-H     0.0406
   2405 H           16.2813   -15.7491    10.0915 H       4   all-H     0.0655
   2406 C           -4.0716    17.3724    12.0467 C       2   Sp2-C     0.1013
   2407 O           -4.9693    16.5154    11.0647 O       5   Sp2-O    -0.4871
   2408 C           -3.9847    15.4849    11.0292 C       2   Sp2-C     0.1653
   2409 C           -2.7430    15.6673    11.8741 C       2   Sp2-C    -0.0268
   2410 C           -2.7968    16.8982    12.5064 C       2   Sp2-C    -0.0329
   2411 C           -4.2804    18.5104    12.5867 C       1   Sp1-C    -0.0121
   2412 C           -3.8828    14.3821    10.4978 C       2   Sp2-C     0.1573
   2413 H           -1.9926    14.9071    12.1002 H       4   all-H     0.0779
   2414 H           -2.1832    17.3609    13.2448 H       4   all-H     0.0508
   2415 H           -4.2745   -18.6540    13.0756 H       4   all-H     0.0655
   2416 H           -3.0436    13.6646    10.7211 H       4   all-H     0.0873
   2417 C          -14.0043     6.6320   -15.2049 C       2   Sp2-C     0.1187
   2418 O          -13.9610     8.0810   -15.7244 O       5   Sp2-O    -0.4683
   2419 C          -14.3384     8.6819   -14.4620 C       2   Sp2-C     0.1262
   2420 C          -14.6492     7.9034   -13.3676 C       2   Sp2-C    -0.0230
   2421 C          -14.4319     6.5982   -13.8182 C       2   Sp2-C    -0.0111
   2422 C          -13.7046     5.5544   -15.9451 C       1   Sp1-C    -0.0177
   2423 C          -14.3437    10.1005   -14.1865 C       2   Sp2-C    -0.0035
   2424 H          -14.9351     8.2984   -12.3803 H       4   all-H     0.0507
   2425 H          -14.5944     5.6800   -13.2747 H       4   all-H     0.0683
   2426 H          -13.7889     4.5440   -16.2591 H       4   all-H     0.0514
   2427 H          -14.6840    10.4986   -13.2467 H       4   all-H     0.0810
   2428 C          -11.8331    15.9115   -16.6097 C       2   Sp2-C     0.1200
   2429 O          -11.7455    14.9153   -17.6200 O       5   Sp2-O    -0.4946
   2430 C          -10.6853    14.0536   -16.8871 C       2   Sp2-C     0.1073
   2431 C          -10.3187    14.6841   -15.6106 C       2   Sp2-C    -0.0372
   2432 C          -11.1447    15.7711   -15.4339 C       2   Sp2-C    -0.0334
   2433 C          -12.6226    17.1350   -16.8778 C       2   Sp2-C    -0.0086
   2434 C          -10.4218    12.8195   -17.2013 C       1   Sp1-C    -0.0326
   2435 H           -9.6198    14.3538   -14.8493 H       4   all-H     0.0338
   2436 H          -11.2384    16.3917   -14.5664 H       4   all-H     0.0394
   2437 H          -13.0265    17.3662   -17.8468 H       4   all-H     0.0840
   2438 H          -10.3407    11.8993   -17.7105 H       4   all-H     0.0430
   2439 C           16.9076    18.2722    -0.6564 C       3   Sp3-C     0.0590
   2440 C           15.5878    17.9070    -0.1060 C       2   Sp2-C    -0.0511
   2441 C           15.7934    16.6480     0.1201 C       2   Sp2-C    -0.0235
   2442 C           17.1820    16.1776    -0.4547 C       3   Sp3-C     0.1508
   2443 C           18.1913    15.9719    -2.7893 C       2   Sp2-C     0.1738
   2444 O          -18.4324    17.0909    -3.1823 O       5   Sp2-O    -0.4726
   2445 C           18.1227    18.1903    -2.9433 C       2   Sp2-C     0.1560
   2446 C           16.8780    17.8412    -2.1639 C       3   Sp3-C     0.0014
   2447 C           16.9653    16.3116    -1.9997 C       3   Sp3-C     0.0291
   2448 C           18.5119   -18.6521    -3.2411 C       2   Sp2-C     0.0228
   2449 C           17.2899   -18.3655    -0.3033 C       3   Sp3-C    -0.0232
   2450 C           17.4592    14.6100    -0.0474 C       3   Sp3-C     0.0024
   2451 C           18.3888    14.6618    -3.1533 C       2   Sp2-C     0.0083
   2452 O           18.1074    17.1032    -0.2066 O       5   Sp2-O    -0.4505
   2453 C           16.9293   -15.4622    -3.5688 C       2   Sp2-C     0.0930
   2454 C           15.7960   -16.1907    -3.1754 C       2   Sp2-C    -0.0383
   2455 C           16.3462   -17.4921    -2.9777 C       2   Sp2-C    -0.0465
   2456 C           17.7159   -17.4651    -3.1426 C       2   Sp2-C     0.1138
   2457 O           18.3263   -16.2434    -3.4274 O       5   Sp2-O    -0.4685
   2458 O           16.2148    13.6103    -2.4742 O       5   Sp2-O    -0.5045
   2459 C           17.5147    13.5295    -2.9925 C       2   Sp2-C     0.1199
   2460 C           18.0712    12.2944    -3.3695 C       2   Sp2-C    -0.0318
   2461 C           17.1888    11.2147    -3.1075 C       2   Sp2-C    -0.0473
   2462 C           16.1098    11.9533    -2.5906 C       2   Sp2-C     0.0797
   2463 O           17.0622   -16.9742     1.8181 O       5   Sp2-O    -0.4535
   2464 C           17.3988   -17.5032     3.3009 C       2   Sp2-C     0.0970
   2465 C           17.7525   -18.9304     3.2394 C       2   Sp2-C    -0.0257
   2466 C           17.6737    18.7943     1.9377 C       2   Sp2-C    -0.0023
   2467 C           17.3022   -18.1741     1.2254 C       2   Sp2-C     0.1414
   2468 C           16.8502    14.2747     1.3230 C       2   Sp2-C     0.1495
   2469 C           15.8212    13.3099     1.3091 C       2   Sp2-C    -0.0156
   2470 C           15.4156    13.1749     2.5609 C       2   Sp2-C    -0.0165
   2471 C           16.1816    14.0838     3.4806 C       3   Sp3-C     0.0835
   2472 O           17.2189    14.8400     2.4629 O       5   Sp2-O    -0.4422
   2473 C           17.3922   -16.8904     4.3700 C       2   Sp2-C    -0.0266
   2474 C           15.1734    11.1504    -2.2907 C       2   Sp2-C    -0.0494
   2475 H           14.7454    18.5277     0.1048 H       4   all-H     0.0487
   2476 H           15.0491    15.9731     0.4552 H       4   all-H     0.0479
   2477 H           15.9177    18.1018    -2.5814 H       4   all-H     0.0337
   2478 H           16.0948    15.7361    -2.3856 H       4   all-H     0.0868
   2479 H          -17.8606   -18.4599    -3.7640 H       4   all-H     0.1132
   2480 H           18.1799   -17.9318    -0.7863 H       4   all-H     0.0662
   2481 H           16.6468   -17.5876    -0.7682 H       4   all-H     0.0551
   2482 H           17.0411    14.0017    -0.8487 H       4   all-H     0.0946
   2483 H           18.5152    14.3211     0.0946 H       4   all-H     0.1310
   2484 H          -18.0481    14.5388    -3.7529 H       4   all-H     0.0842
   2485 H           14.8326   -15.8883    -3.1403 H       4   all-H     0.0539
   2486 H           15.8154   -18.3660    -2.6633 H       4   all-H     0.0249
   2487 H          -18.2717    12.1855    -3.8692 H       4   all-H     0.0486
   2488 H           17.2363    10.1944    -3.3511 H       4   all-H     0.0554
   2489 H           18.0219    18.5112     4.0644 H       4   all-H     0.0938
   2490 H           17.8181    17.7677     1.5684 H       4   all-H     0.1392
   2491 H           15.4340    12.8187     0.4188 H       4   all-H     0.0551
   2492 H           14.6694    12.4845     2.9031 H       4   all-H     0.0704
   2493 H           17.6938   -17.3418     5.2978 H       4   all-H     0.0569
   2494 H           17.1321   -15.8714     4.4676 H       4   all-H     0.0674
   2495 H           15.2349    10.1175    -2.4900 H       4   all-H     0.0355
   2496 H           14.2651    11.5176    -1.8830 H       4   all-H     0.0687
   2497 C           10.7798    13.5938     5.8484 C       3   Sp3-C     0.0978
   2498 C           10.4712    12.3658     5.1179 C       2   Sp2-C    -0.0205
   2499 C            9.6740    11.7748     5.9844 C       2   Sp2-C    -0.0204
   2500 C            9.7500    12.5009     7.3659 C       3   Sp3-C     0.1239
   2501 C           11.5817    12.8147     9.2178 C       2   Sp2-C     0.1556
   2502 O           11.8355    14.1071     9.1552 O       5   Sp2-O    -0.4714
   2503 C           12.4081    14.2697     7.7541 C       2   Sp2-C     0.1234
   2504 C           11.9836    13.1686     6.8609 C       3   Sp3-C     0.0020
   2505 C           11.2450    12.2562     7.8538 C       3   Sp3-C     0.0213
   2506 C           13.1583    15.3407     7.4492 C       2   Sp2-C     0.0127
   2507 C           11.1631    14.8104     4.9149 C       3   Sp3-C    -0.0061
   2508 C            8.7032    11.8342     8.3506 C       3   Sp3-C     0.0089
   2509 C           11.5656    12.0031    10.3601 C       2   Sp2-C    -0.0097
   2510 O            9.7556    13.8840     7.0959 O       5   Sp2-O    -0.4687
   2511 C           15.2103    16.2662     4.5296 C       2   Sp2-C     0.1196
   2512 C           15.3182    14.8500     4.4616 C       2   Sp2-C     0.0139
   2513 C           14.4911    14.4538     5.5657 C       2   Sp2-C    -0.0179
   2514 C           13.9881    15.5344     6.2483 C       2   Sp2-C     0.1346
   2515 O           14.2784    16.8273     5.8417 O       5   Sp2-O    -0.4716
   2516 O           10.9071     9.8619     9.2037 O       5   Sp2-O    -0.4868
   2517 C           11.2606    10.6290    10.3026 C       2   Sp2-C     0.1263
   2518 C           11.3408     9.9131    11.5273 C       2   Sp2-C    -0.0115
   2519 C           11.1304     8.5381    11.3638 C       2   Sp2-C    -0.0185
   2520 C           10.8899     8.5352     9.9436 C       2   Sp2-C     0.1251
   2521 O           12.1392    13.3734     3.1408 O       5   Sp2-O    -0.4705
   2522 C           11.8338    13.4139     1.5834 C       2   Sp2-C     0.0900
   2523 C           10.9105    14.5303     1.2674 C       2   Sp2-C    -0.0425
   2524 C           10.6611    15.1724     2.4509 C       2   Sp2-C    -0.0287
   2525 C           11.3175    14.4371     3.4228 C       2   Sp2-C     0.1283
   2526 C            7.9108    12.8988     9.2008 C       2   Sp2-C     0.1887
   2527 C            8.1961    14.2880     9.1642 C       2   Sp2-C     0.0141
   2528 C            7.4315    15.3239     9.7751 C       2   Sp2-C    -0.0211
   2529 C            6.2751    15.0396    10.4845 C       1   Sp1-C     0.1693
   2530 O            7.0743    12.3413     9.8335 O       5   Sp2-O    -0.5019
   2531 C           12.2714    12.5969     0.7820 C       2   Sp2-C    -0.0282
   2532 C           10.7207     7.3021     9.6077 C       2   Sp2-C    -0.0276
   2533 H           10.6392    12.0846     4.0855 H       4   all-H     0.0923
   2534 H            9.1667    10.8221     5.8180 H       4   all-H     0.0762
   2535 H           12.7270    12.7409     6.1751 H       4   all-H     0.0395
   2536 H           11.4866    11.2422     7.8512 H       4   all-H     0.0886
   2537 H           13.0588    16.1407     8.1965 H       4   all-H     0.0903
   2538 H           10.4641    15.6578     4.9962 H       4   all-H     0.0986
   2539 H           11.9241    15.4800     5.3134 H       4   all-H     0.0694
   2540 H            8.0160    11.1393     7.8022 H       4   all-H     0.0848
   2541 H            9.2414    11.1211     9.0104 H       4   all-H     0.1122
   2542 H           11.8833    12.3345    11.3381 H       4   all-H     0.0491
   2543 H           16.7688    13.5059     4.1298 H       4   all-H     0.0870
   2544 H           14.4146    13.4280     5.8414 H       4   all-H     0.0382
   2545 H           11.5030    10.3135    12.4943 H       4   all-H     0.0520
   2546 H           11.0201     7.7589    12.0990 H       4   all-H     0.0484
   2547 H           10.5352    14.7888     0.3191 H       4   all-H     0.0380
   2548 H           10.0268    16.0654     2.6278 H       4   all-H     0.0651
   2549 H            9.1393    14.6271     8.6464 H       4   all-H     0.1399
   2550 H            7.7271    16.3570     9.5798 H       4   all-H     0.0480
   2551 H           11.9066    12.6109    -0.2799 H       4   all-H     0.0611
   2552 H           12.9351    11.7654     1.0265 H       4   all-H     0.0743
   2553 H           10.7732     6.4136    10.1974 H       4   all-H     0.0542
   2554 H           10.5208     7.1519     8.4737 H       4   all-H     0.1424
   2555 C          -13.7204    17.4947    -1.3049 C       3   Sp3-C     0.1426
   2556 C          -12.7346    16.2787    -1.4773 C       2   Sp2-C    -0.0122
   2557 C          -13.0121    15.0750    -1.0472 C       2   Sp2-C    -0.0510
   2558 C          -14.3344    15.1636    -0.4638 C       2   Sp2-C    -0.0368
   2559 C          -15.7142    14.8812    -2.4454 C       2   Sp2-C     0.1659
   2560 O          -15.3995    15.4824    -3.6153 O       5   Sp2-O    -0.4920
   2561 C          -15.3192    16.8772    -3.2777 C       2   Sp2-C     0.1717
   2562 C          -15.1441    17.1657    -1.8036 C       3   Sp3-C     0.0255
   2563 C          -15.5120    15.7751    -1.2735 C       3   Sp3-C     0.0061
   2564 C          -15.3820    17.7915    -4.2487 C       2   Sp2-C     0.0264
   2565 C          -13.7753    17.7363     0.3041 C       3   Sp3-C    -0.0190
   2566 C          -14.4233    14.4259     0.7634 C       2   Sp2-C    -0.0128
   2567 C          -16.0671    13.5207    -2.3241 C       2   Sp2-C     0.0053
   2568 O          -13.1145    18.5358    -1.9342 O       6   Sp3-O    -0.5632
   2569 C          -15.4489   -16.8507    -3.2154 C       2   Sp2-C     0.1296
   2570 C          -15.2649   -16.8322    -4.7131 C       2   Sp2-C    -0.0089
   2571 C          -15.2530   -18.1132    -5.1370 C       2   Sp2-C    -0.0213
   2572 C          -15.3364   -18.8803    -3.9462 C       2   Sp2-C     0.1391
   2573 O          -15.3307   -18.2830    -2.6703 O       5   Sp2-O    -0.4981
   2574 O          -16.9357    13.6141     0.0426 O       6   Sp3-O    -0.5867
   2575 C          -16.5559    12.9569    -1.0946 C       2   Sp2-C     0.1354
   2576 C          -16.6667    11.6092    -1.4323 C       2   Sp2-C    -0.0362
   2577 C          -17.2432    10.6265    -0.5651 C       2   Sp2-C    -0.0478
   2578 C          -17.8244    10.9301     0.6809 C       1   Sp1-C    -0.0128
   2579 O          -14.5644   -17.9959     0.6079 O       5   Sp2-O    -0.4598
   2580 C          -15.8518   -17.5175     1.6138 C       2   Sp2-C     0.0810
   2581 C          -16.4911   -18.6169     2.1829 C       2   Sp2-C    -0.0236
   2582 C          -15.6951    18.4120     1.7925 C       2   Sp2-C    -0.0109
   2583 C          -14.6770    18.8260     0.9319 C       2   Sp2-C     0.1472
   2584 C          -13.4479    13.4533     1.0816 C       3   Sp3-C    -0.0282
   2585 C          -12.6264    13.0705     2.1071 C       3   Sp3-C    -0.0345
   2586 C          -14.1441    12.0872     3.2345 C       2   Sp2-C     0.0299
   2587 C          -14.5263    13.1098     4.2727 C       2   Sp2-C     0.1535
   2588 O          -14.2208    14.4493     4.0211 O       6   Sp3-O    -0.5669
   2589 C          -14.9901    12.6960     5.4062 C       2   Sp2-C    -0.0016
   2590 C          -15.4923   -15.8113    -2.5655 C       2   Sp2-C    -0.0143
   2591 H          -11.7258    16.4582    -1.8254 H       4   all-H     0.0699
   2592 H          -12.3723    14.2589    -0.9884 H       4   all-H     0.0628
   2593 H          -15.7908    17.9819    -1.5086 H       4   all-H     0.1193
   2594 H          -16.3261    15.7142    -0.4977 H       4   all-H     0.1146
   2595 H          -15.6289    17.4570    -5.2484 H       4   all-H     0.0696
   2596 H          -14.2519    16.9614     0.9110 H       4   all-H     0.0327
   2597 H          -12.7557    17.8200     0.6774 H       4   all-H     0.0525
   2598 H          -15.3208    14.4424     1.3478 H       4   all-H     0.1248
   2599 H          -17.1896    12.9321     0.6994 H       4   all-H     0.2679
   2600 H          -16.0842    12.8770    -3.2452 H       4   all-H     0.0623
   2601 H          -15.2204   -15.9200    -5.2548 H       4   all-H     0.0852
   2602 H          -15.1613   -18.4738    -6.1665 H       4   all-H     0.0613
   2603 H          -16.1408    11.2807    -2.3124 H       4   all-H     0.0942
   2604 H          -17.0100     9.5970    -0.8881 H       4   all-H     0.0543
   2605 H          -17.3441   -18.5176     2.7832 H       4   all-H     0.0551
   2606 H          -15.9357    17.3643     2.0103 H       4   all-H     0.0641
   2607 H          -12.2084    13.5398     2.9313 H       4   all-H     0.0896
   2608 H          -15.2916     9.7657     5.4222 H       4   all-H     0.3419
   2609 H          -15.0575    11.6526     5.6019 H       4   all-H     0.1274
   2610 H          -15.3051    13.2733     6.2332 H       4   all-H     0.0510
   2611 H          -15.3267   -14.9690    -3.2525 H       4   all-H     0.0485
   2612 H          -15.5405   -15.6741    -1.4763 H       4   all-H     0.0727
   2613 C          -16.4072     9.7889     6.9959 C       3   Sp3-C     0.1263
   2614 C          -16.3830     8.8719     8.1867 C       2   Sp2-C    -0.0092
   2615 C          -17.5360     8.4686     8.7523 C       2   Sp2-C    -0.0228
   2616 C           18.5048     8.6909     8.1914 C       2   Sp2-C    -0.0129
   2617 C           17.9955     7.7735     6.2865 C       2   Sp2-C     0.1573
   2618 O          -18.3121     7.1183     5.6310 O       5   Sp2-O    -0.5034
   2619 C          -17.4239     8.1378     5.2355 C       2   Sp2-C     0.1334
   2620 C          -17.5436     9.4151     6.0757 C       3   Sp3-C     0.0151
   2621 C           18.3760     9.1015     6.7801 C       3   Sp3-C     0.0035
   2622 C          -16.6546     8.0210     4.1040 C       2   Sp2-C    -0.0082
   2623 C          -16.8249    11.2696     7.6965 C       3   Sp3-C    -0.0119
   2624 C           17.3156     8.4773     9.1511 C       3   Sp3-C    -0.0257
   2625 C           16.6158     7.3942     6.1320 C       2   Sp2-C     0.0339
   2626 O          -15.1394     9.8902     6.4251 O       6   Sp3-O    -0.5797
   2627 C          -14.6950    10.7767     3.0547 C       2   Sp2-C     0.1132
   2628 C          -14.2198     9.7119     2.2202 C       2   Sp2-C    -0.0246
   2629 C          -14.8872     8.5194     2.5204 C       2   Sp2-C    -0.0403
   2630 C          -15.7947     8.9641     3.4997 C       2   Sp2-C     0.1142
   2631 O          -15.8331    10.2816     4.0206 O       5   Sp2-O    -0.5184
   2632 O           15.5888     9.4447     7.0769 O       5   Sp2-O    -0.4956
   2633 C           15.5421     8.1381     6.5802 C       2   Sp2-C     0.1269
   2634 C           14.2899     7.5418     6.5449 C       2   Sp2-C    -0.0028
   2635 C           13.2757     8.3980     6.9952 C       2   Sp2-C    -0.0294
   2636 C           14.0292     9.5670     7.2768 C       2   Sp2-C     0.1024
   2637 O          -18.6431    12.0178     6.0800 O       5   Sp2-O    -0.5002
   2638 C           18.4383    13.6271     5.6894 C       2   Sp2-C     0.1170
   2639 C          -18.1782    14.4787     6.5344 C       2   Sp2-C    -0.0097
   2640 C          -17.4757    13.6174     7.3530 C       2   Sp2-C    -0.0308
   2641 C          -17.7433    12.2625     7.0449 C       2   Sp2-C     0.1389
   2642 C           17.1713     7.0213     9.6057 C       2   Sp2-C     0.1402
   2643 C           15.9146     6.4483     9.4036 C       2   Sp2-C    -0.0279
   2644 C           16.0164     5.1913     9.9687 C       2   Sp2-C    -0.0374
   2645 C           17.3842     4.9936    10.4341 C       2   Sp2-C     0.0907
   2646 O           18.1800     6.3595    10.2294 O       5   Sp2-O    -0.4606
   2647 C           17.8129     3.8861    10.9299 C       2   Sp2-C    -0.0228
   2648 C          -13.6917    12.2342     1.8801 C       3   Sp3-C    -0.0294
   2649 H          -15.5364     8.7593     8.8017 H       4   all-H     0.0806
   2650 H          -17.3399     8.0426     9.7615 H       4   all-H     0.1003
   2651 H          -17.5187    10.3180     5.4496 H       4   all-H     0.1305
   2652 H           17.6598     9.9379     6.6769 H       4   all-H     0.1201
   2653 H          -16.9604     7.0284     3.7103 H       4   all-H     0.0534
   2654 H          -17.2669    10.8554     8.6217 H       4   all-H     0.0831
   2655 H          -15.9319    11.7632     7.9230 H       4   all-H     0.0678
   2656 H           17.4808     9.2346     9.9716 H       4   all-H     0.0460
   2657 H           16.3451     8.7736     8.6763 H       4   all-H     0.1031
   2658 H           16.3255     6.5229     5.6084 H       4   all-H     0.1379
   2659 H          -13.4987     9.8715     1.4370 H       4   all-H     0.0706
   2660 H          -14.7307     7.5625     2.1201 H       4   all-H     0.0416
   2661 H           14.0859     6.6077     6.1856 H       4   all-H     0.1300
   2662 H           12.1934     8.3035     7.0398 H       4   all-H     0.0816
   2663 H          -18.0930    15.5638     6.5117 H       4   all-H     0.1158
   2664 H          -16.7630    13.9056     8.0843 H       4   all-H     0.0375
   2665 H           14.9883     6.8145     9.0148 H       4   all-H     0.0452
   2666 H           15.1896     4.4918    10.1357 H       4   all-H     0.0436
   2667 H           17.1309     3.0036    11.0607 H       4   all-H     0.1236
   2668 H          -18.5277     3.8388    11.2653 H       4   all-H     0.0826
   2669 H          -13.9038   -18.8401    -2.0419 H       4   all-H     0.3540
   2670 H          -13.9245    14.8920     4.8980 H       4   all-H     0.3552
   2671 C           10.8129    -1.9032     0.0195 C       2   Sp2-C     0.1838
   2672 C           10.0594    -1.1442    -0.9761 C       2   Sp2-C     0.0044
   2673 C            9.9499    -1.5081    -2.2577 C       2   Sp2-C    -0.0100
   2674 C           10.8175    -2.4990    -2.9159 C       2   Sp2-C     0.1748
   2675 C           10.7250    -2.5737    -4.5011 C       3   Sp3-C     0.0116
   2676 O           11.6344    -3.1564    -2.4076 O       5   Sp2-O    -0.5050
   2677 O           11.3334    -1.4267     0.9585 O       5   Sp2-O    -0.5125
   2678 C           10.4724    -3.9194    -5.0730 C       2   Sp2-C     0.1161
   2679 C           10.1902    -4.9907    -4.4354 C       2   Sp2-C    -0.0092
   2680 C           10.0327    -6.0286    -5.4167 C       2   Sp2-C    -0.0371
   2681 C           10.1218    -5.6090    -6.7740 C       2   Sp2-C     0.0639
   2682 O           10.5349    -3.9541    -6.6055 O       6   Sp3-O    -0.4789
   2683 C           10.0318    -6.2499    -7.7966 C       2   Sp2-C    -0.0430
   2684 C           10.6261    -3.4696     0.0845 C       3   Sp3-C     0.0405
   2685 C           14.3542    -5.7071     0.9287 C       2   Sp2-C     0.1311
   2686 C           14.2043    -4.4572     0.4230 C       2   Sp2-C    -0.0107
   2687 C           12.8623    -3.8206     0.0909 C       2   Sp2-C    -0.0022
   2688 C           11.7569    -4.2117     0.6196 C       2   Sp2-C     0.1524
   2689 O           11.3959    -5.1928     1.5421 O       6   Sp3-O    -0.4986
   2690 H            9.4130    -0.3116    -0.6503 H       4   all-H     0.0843
   2691 H            9.2654    -1.0595    -2.9459 H       4   all-H     0.0631
   2692 H            9.9141    -1.9380    -4.5787 H       4   all-H     0.0627
   2693 H           11.5149    -2.0436    -5.0538 H       4   all-H     0.1081
   2694 H           10.0716    -5.1535    -3.3790 H       4   all-H     0.1227
   2695 H            9.7597    -7.0494    -5.1009 H       4   all-H     0.0346
   2696 H            9.9179    -7.3571    -7.8684 H       4   all-H     0.0381
   2697 H           10.0363    -5.7706    -8.7097 H       4   all-H     0.0976
   2698 H            9.7293    -3.5867     0.7533 H       4   all-H     0.1226
   2699 H           10.2740    -3.7917    -0.8974 H       4   all-H     0.1258
   2700 H           15.0712    -3.9853     0.0010 H       4   all-H     0.0766
   2701 H           12.8126    -3.0396    -0.6673 H       4   all-H     0.1030
   2702 C           12.6237     6.4103    -4.3052 C       2   Sp2-C     0.1702
   2703 C           13.1452     5.0894    -3.9576 C       2   Sp2-C     0.0124
   2704 C           12.9221     4.2665    -2.9304 C       2   Sp2-C    -0.0211
   2705 C           11.9731     4.5132    -1.8386 C       2   Sp2-C     0.1658
   2706 C           11.8671     3.3644    -0.7934 C       3   Sp3-C     0.0033
   2707 O           11.3009     5.4630    -1.6694 O       5   Sp2-O    -0.5046
   2708 O           12.9035     6.9569    -5.3041 O       5   Sp2-O    -0.5068
   2709 C           10.3714     2.9259    -0.5806 C       2   Sp2-C     0.1642
   2710 C            9.8179     3.4718     0.6280 C       2   Sp2-C    -0.0271
   2711 C            8.5648     2.9940     0.6124 C       2   Sp2-C    -0.0279
   2712 C            8.3097     2.3272    -0.6942 C       2   Sp2-C     0.0854
   2713 O            9.7472     2.2899    -1.5102 O       5   Sp2-O    -0.4830
   2714 C            7.2622     1.8099    -1.0233 C       2   Sp2-C    -0.0309
   2715 C           11.8471     7.2430    -3.2707 C       3   Sp3-C     0.0298
   2716 C           12.0394    11.6216    -3.6914 C       2   Sp2-C     0.1966
   2717 C           12.8322    10.7809    -4.4375 C       2   Sp2-C     0.0071
   2718 C           12.8580     9.3498    -4.2562 C       2   Sp2-C     0.0057
   2719 C           11.8914     8.7997    -3.3923 C       2   Sp2-C     0.1852
   2720 O           11.1903     9.3868    -2.6265 O       5   Sp2-O    -0.4710
   2721 H           13.8231     4.7125    -4.7086 H       4   all-H     0.1361
   2722 H           13.3389     3.3025    -3.0061 H       4   all-H     0.0497
   2723 H           12.5263     2.5593    -1.1273 H       4   all-H     0.0529
   2724 H           12.2689     3.7275     0.1325 H       4   all-H     0.0852
   2725 H           10.3347     4.0452     1.3860 H       4   all-H     0.0426
   2726 H            7.8011     3.1648     1.3448 H       4   all-H     0.0704
   2727 H            6.4026     1.7990    -0.3964 H       4   all-H     0.0778
   2728 H            7.1324     1.3084    -1.9725 H       4   all-H     0.0615
   2729 H           10.8581     6.9014    -3.2894 H       4   all-H     0.1030
   2730 H           12.2253     7.0793    -2.2033 H       4   all-H     0.1048
   2731 H           13.4113    11.2212    -5.2069 H       4   all-H     0.0914
   2732 H           13.5072     8.5990    -4.7027 H       4   all-H     0.1133
   2733 C            8.5656     9.9586     3.0282 C       2   Sp2-C     0.1713
   2734 O            7.5142    10.1793     3.8145 O       5   Sp2-O    -0.4518
   2735 C            7.5633    11.7356     3.7719 C       2   Sp2-C     0.1059
   2736 C            8.5063    12.2699     2.8741 C       2   Sp2-C    -0.0393
   2737 C            9.1087    11.1303     2.3808 C       2   Sp2-C     0.0018
   2738 C            9.1603     8.7124     2.7076 C       2   Sp2-C     0.0245
   2739 C            6.5685    13.8807     4.5075 C       2   Sp2-C     0.1347
   2740 O            5.6414    14.4448     5.4183 O       5   Sp2-O    -0.4715
   2741 C            5.6126    15.8593     4.7671 C       2   Sp2-C     0.1359
   2742 C            6.4738    16.0238     3.6455 C       2   Sp2-C    -0.0150
   2743 C            7.0292    14.7305     3.4776 C       2   Sp2-C    -0.0186
   2744 C            6.7328    12.4946     4.5856 C       2   Sp2-C     0.0232
   2745 C           10.3335     8.5467     1.9843 C       2   Sp2-C     0.1311
   2746 C           10.6760     7.2222     1.5259 C       2   Sp2-C    -0.0219
   2747 C           11.8499     7.1884     0.8155 C       2   Sp2-C    -0.0244
   2748 C           12.1266     8.6223     0.8084 C       2   Sp2-C     0.1104
   2749 O           11.0859     9.6088     1.4757 O       5   Sp2-O    -0.4753
   2750 C           13.1747     8.7802     0.1421 C       2   Sp2-C    -0.0322
   2751 H            8.6338    13.3024     2.6968 H       4   all-H     0.0370
   2752 H            9.9885    11.2088     1.6814 H       4   all-H     0.1151
   2753 H            8.5817     7.8525     3.0283 H       4   all-H     0.0761
   2754 H            6.5483    16.8722     2.9759 H       4   all-H     0.0628
   2755 H            7.7400    14.5415     2.6948 H       4   all-H     0.0424
   2756 H            6.1066    11.9187     5.3151 H       4   all-H     0.0846
   2757 H           10.0635     6.3485     1.7945 H       4   all-H     0.0385
   2758 H           12.3046     6.3041     0.3479 H       4   all-H     0.0630
   2759 H           13.7366     7.9542    -0.3034 H       4   all-H     0.0345
   2760 H           13.5901     9.7344     0.1393 H       4   all-H     0.0645
   2761 C           -2.1608     9.0988     8.4485 C       2   Sp2-C     0.1585
   2762 O           -1.7749    10.4057     8.1318 O       5   Sp2-O    -0.4908
   2763 C           -1.3512    10.7893     9.5154 C       2   Sp2-C     0.1125
   2764 C           -1.3590     9.8080    10.4889 C       2   Sp2-C    -0.0120
   2765 C           -1.9396     8.7226     9.7677 C       2   Sp2-C     0.0216
   2766 C           -2.6681     8.1801     7.5341 C       2   Sp2-C     0.0140
   2767 C           -0.7945    12.6628    11.1456 C       2   Sp2-C     0.1232
   2768 O            0.0644    13.7774    11.4879 O       6   Sp3-O    -0.4856
   2769 C           -1.0968    13.6124    14.0794 C       1   Sp1-C     0.0044
   2770 C           -1.8934    12.6026    13.4696 C       2   Sp2-C    -0.0205
   2771 C           -1.6589    12.2011    12.1055 C       2   Sp2-C    -0.0238
   2772 C           -0.9035    12.0824     9.8547 C       2   Sp2-C     0.0129
   2773 C           -2.9407     6.8103     7.8039 C       2   Sp2-C     0.1205
   2774 C           -3.4197     6.0184     6.7222 C       2   Sp2-C    -0.0204
   2775 C           -3.4613     4.7646     7.2697 C       2   Sp2-C    -0.0235
   2776 C           -3.1091     4.6989     8.6761 C       2   Sp2-C     0.1030
   2777 O           -2.7784     6.1349     9.0712 O       5   Sp2-O    -0.4865
   2778 C           -3.0245     3.6309     9.3641 C       2   Sp2-C    -0.0427
   2779 H           -1.0995     9.7768    11.5301 H       4   all-H     0.0465
   2780 H           -2.2778     7.8566    10.2746 H       4   all-H     0.1042
   2781 H           -2.8538     8.4779     6.5274 H       4   all-H     0.0680
   2782 H           -2.7688    12.1905    14.0155 H       4   all-H     0.1034
   2783 H           -2.2764    11.3883    11.7649 H       4   all-H     0.0594
   2784 H           -0.8539    12.5375     8.8147 H       4   all-H     0.1504
   2785 H           -3.6374     6.2955     5.7104 H       4   all-H     0.1148
   2786 H           -3.6712     3.8800     6.7282 H       4   all-H     0.0581
   2787 H           -3.3275     2.6717     8.8868 H       4   all-H     0.0921
   2788 H           -2.7093     3.5647    10.3737 H       4   all-H     0.0506
   2789 C            2.3207    14.7512    -2.7740 C       2   Sp2-C     0.0980
   2790 O            3.7480    14.8858    -3.5481 O       6   Sp3-O    -0.4577
   2791 C            3.0165    14.4976    -4.8714 C       2   Sp2-C     0.1024
   2792 C            1.6611    14.2621    -4.9265 C       2   Sp2-C    -0.0361
   2793 C            1.2241    14.4626    -3.6083 C       2   Sp2-C    -0.0258
   2794 C            2.1744    15.0798    -1.4490 C       1   Sp1-C    -0.0339
   2795 C            3.6891    14.3374    -6.1105 C       2   Sp2-C    -0.0265
   2796 H            1.0726    14.0236    -5.8383 H       4   all-H     0.0481
   2797 H            0.2219    14.3668    -3.3183 H       4   all-H     0.0489
   2798 H            1.6122    15.3702    -0.5631 H       4   all-H     0.0599
   2799 H            3.1639    14.1264    -7.0107 H       4   all-H     0.0582
   2800 C            3.7281     2.7792   -14.8813 C       2   Sp2-C     0.1249
   2801 O            3.0609     1.6787   -14.1672 O       5   Sp2-O    -0.4684
   2802 C            3.4321     2.1933   -12.7825 C       2   Sp2-C     0.1058
   2803 C            4.1759     3.4562   -12.8569 C       2   Sp2-C    -0.0321
   2804 C            4.3175     3.7774   -14.1721 C       2   Sp2-C    -0.0166
   2805 C            3.7704     2.9174   -16.3436 C       2   Sp2-C    -0.0173
   2806 C            3.2722     1.6393   -11.6119 C       1   Sp1-C    -0.0203
   2807 H            4.5400     4.0648   -12.1109 H       4   all-H     0.0394
   2808 H            4.8883     4.5980   -14.5916 H       4   all-H     0.0937
   2809 H            4.2946     3.7280   -16.7827 H       4   all-H     0.0458
   2810 H            3.2189     1.2818   -10.5461 H       4   all-H     0.1201
   2811 C           -3.1484    12.7181     1.1829 C       2   Sp2-C    -0.0401
   2812 C           -3.8674    11.5646     0.7106 C       2   Sp2-C    -0.0540
   2813 C           -2.9588    10.6653     0.4972 C       2   Sp2-C    -0.0245
   2814 C           -1.3775    10.7979     0.6406 C       3   Sp3-C     0.1751
   2815 C            0.2131    12.8784     0.4412 C       2   Sp2-C     0.1646
   2816 O           -0.0662    14.0038     1.1937 O       5   Sp2-O    -0.4961
   2817 C           -1.3173    14.4422     0.7771 C       2   Sp2-C     0.1233
   2818 C           -2.1401    13.2841     0.2515 C       3   Sp3-C    -0.0273
   2819 C           -1.0444    12.2581    -0.1172 C       3   Sp3-C     0.0160
   2820 C           -1.7052    15.7223     0.8708 C       2   Sp2-C     0.0107
   2821 C           -3.8766    13.5213     2.2396 C       3   Sp3-C    -0.0305
   2822 C           -0.7438     9.4349    -0.2750 C       3   Sp3-C     0.0074
   2823 C            1.4497    12.3229     0.1728 C       2   Sp2-C     0.0166
   2824 O           -0.9196    10.7675     1.7504 O       6   Sp3-O    -0.4492
   2825 C           -4.4525    17.7796    -0.3649 C       2   Sp2-C     0.2463
   2826 C           -4.9030    16.3066    -0.5893 C       2   Sp2-C    -0.0059
   2827 C           -3.9900    15.4920    -0.0547 C       2   Sp2-C    -0.0408
   2828 C           -2.9190    16.3248     0.4167 C       2   Sp2-C     0.1250
   2829 O           -3.0944    17.7377     0.4327 O       5   Sp2-O    -0.4732
   2830 O            0.9885    10.6987    -1.6812 O       5   Sp2-O    -0.4887
   2831 C            1.7625    11.2183    -0.6948 C       2   Sp2-C     0.1326
   2832 C            3.0595    10.6917    -0.5380 C       2   Sp2-C    -0.0236
   2833 C            3.3339     9.6477    -1.4144 C       2   Sp2-C    -0.0388
   2834 C            2.0691     9.6304    -2.1277 C       2   Sp2-C     0.0972
   2835 O           -4.2410    13.3734     4.7789 O       5   Sp2-O    -0.4810
   2836 C           -3.4489    12.4248     5.7586 C       2   Sp2-C     0.1008
   2837 C           -2.5001    11.5751     5.0330 C       2   Sp2-C    -0.0234
   2838 C           -2.5552    12.0338     3.7303 C       2   Sp2-C    -0.0012
   2839 C           -3.5277    12.9706     3.6950 C       2   Sp2-C     0.1504
   2840 C           -1.1563     8.0848     0.2697 C       2   Sp2-C     0.1518
   2841 C           -2.0959     7.4474    -0.5848 C       2   Sp2-C    -0.0286
   2842 C           -2.3633     6.2670     0.0015 C       2   Sp2-C    -0.0244
   2843 C           -1.7776     6.1755     1.3826 C       3   Sp3-C     0.0661
   2844 O           -0.8693     7.6670     1.4823 O       5   Sp2-O    -0.4426
   2845 C           -3.6875    12.3868     6.9561 C       2   Sp2-C    -0.0015
   2846 C            2.1409     8.7362    -3.0174 C       2   Sp2-C    -0.0365
   2847 H           -4.9239    11.4536     0.7126 H       4   all-H     0.0709
   2848 H           -3.2998     9.7237     0.1260 H       4   all-H     0.0562
   2849 H           -2.6436    13.5747    -0.6607 H       4   all-H     0.0240
   2850 H           -0.9517    12.0941    -1.2302 H       4   all-H     0.0572
   2851 H           -0.9710    16.4590     1.2335 H       4   all-H     0.0871
   2852 H           -3.8156    14.5888     2.2064 H       4   all-H     0.0729
   2853 H           -5.0078    13.2966     2.0468 H       4   all-H     0.1174
   2854 H           -1.1209     9.6780    -1.2768 H       4   all-H     0.0509
   2855 H            0.3003     9.6909    -0.0080 H       4   all-H     0.1273
   2856 H            2.3483    12.6687     0.6591 H       4   all-H     0.0976
   2857 H           -5.8281    15.9847    -1.0956 H       4   all-H     0.1122
   2858 H           -4.1239    14.4093    -0.0926 H       4   all-H     0.0360
   2859 H            3.7416    11.0820     0.2107 H       4   all-H     0.0789
   2860 H            4.2403     9.0491    -1.5492 H       4   all-H     0.0716
   2861 H           -1.8859    10.7877     5.4724 H       4   all-H     0.0771
   2862 H           -1.9912    11.6257     2.8585 H       4   all-H     0.1481
   2863 H           -2.4862     7.7663    -1.5277 H       4   all-H     0.0426
   2864 H           -3.0824     5.5977    -0.3641 H       4   all-H     0.0520
   2865 H           -3.1476    11.6563     7.5685 H       4   all-H     0.1149
   2866 H           -4.4123    12.9706     7.4474 H       4   all-H     0.1005
   2867 H            3.0798     8.1945    -3.1971 H       4   all-H     0.0756
   2868 H            1.3498     8.5858    -3.7366 H       4   all-H     0.0759
   2869 C           -6.6105     4.9016     0.8177 C       3   Sp3-C     0.0738
   2870 C           -6.2715     4.3843    -0.5467 C       2   Sp2-C    -0.0216
   2871 C           -7.2515     3.5988    -0.7360 C       2   Sp2-C    -0.0208
   2872 C           -8.1596     3.4792     0.5153 C       3   Sp3-C     0.1378
   2873 C           -7.8272     2.2777     2.8058 C       2   Sp2-C     0.1449
   2874 O           -7.5969     3.2665     3.7770 O       5   Sp2-O    -0.4864
   2875 C           -6.6261     4.0850     3.2886 C       2   Sp2-C     0.1518
   2876 C           -6.2684     3.7873     1.8331 C       3   Sp3-C    -0.0003
   2877 C           -7.1963     2.6325     1.4958 C       3   Sp3-C     0.0146
   2878 C           -5.9806     5.0628     4.0187 C       2   Sp2-C    -0.0010
   2879 C           -6.1198     6.3641     1.2373 C       3   Sp3-C    -0.0238
   2880 C           -9.4547     2.7022    -0.0423 C       3   Sp3-C    -0.0109
   2881 C           -8.5197     1.1205     2.9491 C       2   Sp2-C     0.0114
   2882 O           -8.2911     4.6772     1.0913 O       5   Sp2-O    -0.4698
   2883 C           -3.1200     7.2302     3.2889 C       2   Sp2-C     0.1396
   2884 C           -2.8276     6.1532     2.4099 C       2   Sp2-C     0.0119
   2885 C           -3.8831     5.2141     2.7126 C       2   Sp2-C    -0.0346
   2886 C           -4.7345     5.7425     3.6909 C       2   Sp2-C     0.1183
   2887 O           -4.4768     6.9636     4.2138 O       5   Sp2-O    -0.4955
   2888 O           -7.9867     0.0768     0.7593 O       5   Sp2-O    -0.5080
   2889 C           -8.6063     0.0978     1.9435 C       2   Sp2-C     0.1355
   2890 C           -9.4092    -1.0120     2.3036 C       2   Sp2-C    -0.0179
   2891 C           -9.3677    -2.0436     1.3476 C       2   Sp2-C    -0.0395
   2892 C           -8.5533    -1.3686     0.3593 C       2   Sp2-C     0.0886
   2893 O           -6.1290     7.5101    -1.0912 O       5   Sp2-O    -0.4822
   2894 C           -6.9492     8.7949    -1.4351 C       2   Sp2-C     0.0869
   2895 C           -7.6758     9.2811    -0.2495 C       2   Sp2-C    -0.0279
   2896 C           -7.4280     8.3697     0.7445 C       2   Sp2-C    -0.0196
   2897 C           -6.5593     7.4565     0.2003 C       2   Sp2-C     0.1485
   2898 C          -10.7417     3.1045     0.7153 C       2   Sp2-C     0.1446
   2899 C          -10.7463     3.0852     2.0593 C       2   Sp2-C    -0.0062
   2900 C          -12.0936     3.2707     2.4100 C       2   Sp2-C    -0.0226
   2901 C          -12.8511     3.4475     1.2422 C       2   Sp2-C     0.0925
   2902 O          -11.9040     3.2494    -0.0256 O       5   Sp2-O    -0.4670
   2903 C           -6.9680     9.2755    -2.5541 C       2   Sp2-C    -0.0405
   2904 C           -8.3891    -2.1366    -0.6307 C       2   Sp2-C    -0.0692
   2905 H           -5.4593     4.5904    -1.1652 H       4   all-H     0.0860
   2906 H           -7.4845     3.1137    -1.6659 H       4   all-H     0.0717
   2907 H           -5.2696     3.4545     1.7232 H       4   all-H     0.0238
   2908 H           -6.7854     1.7123     1.0529 H       4   all-H     0.0743
   2909 H           -6.4249     5.2804     4.9654 H       4   all-H     0.0774
   2910 H           -6.3466     6.6141     2.2261 H       4   all-H     0.0577
   2911 H           -5.0298     6.3672     1.1182 H       4   all-H     0.0546
   2912 H           -9.7077     2.8686    -1.0756 H       4   all-H     0.0684
   2913 H           -9.1496     1.6220     0.0141 H       4   all-H     0.0877
   2914 H           -9.0573     1.0399     3.8829 H       4   all-H     0.1080
   2915 H           -1.2837     5.2512     1.6312 H       4   all-H     0.0768
   2916 H           -4.0052     4.2514     2.2811 H       4   all-H     0.0363
   2917 H           -9.9871    -1.0368     3.1984 H       4   all-H     0.0610
   2918 H           -9.7993    -3.0393     1.4214 H       4   all-H     0.0544
   2919 H           -8.3330    10.0869    -0.2536 H       4   all-H     0.0608
   2920 H           -7.7381     8.3870     1.7479 H       4   all-H     0.0419
   2921 H           -9.8644     2.9654     2.6659 H       4   all-H     0.0793
   2922 H          -12.4966     3.2561     3.4120 H       4   all-H     0.0675
   2923 H           -7.5794    10.1798    -2.8671 H       4   all-H     0.0976
   2924 H           -6.4060     8.8639    -3.3246 H       4   all-H     0.0480
   2925 H           -8.7313    -3.1430    -0.6752 H       4   all-H     0.0189
   2926 H           -7.7544    -1.8626    -1.4441 H       4   all-H     0.0405
   2927 C            0.2889    14.7406     5.5395 C       3   Sp3-C     0.0821
   2928 C            0.0005    13.3217     5.7103 C       2   Sp2-C    -0.0036
   2929 C            0.9072    12.4109     5.3331 C       2   Sp2-C    -0.0236
   2930 C            1.9449    13.3216     4.9183 C       2   Sp2-C     0.0515
   2931 C            2.5877    15.0204     3.0815 C       2   Sp2-C     0.1486
   2932 O            2.2972    16.3337     3.4286 O       5   Sp2-O    -0.5010
   2933 C            0.8602    16.3177     3.6633 C       2   Sp2-C     0.1370
   2934 C            0.3002    14.9753     4.0573 C       3   Sp3-C     0.0161
   2935 C            1.5609    13.9985     3.5488 C       3   Sp3-C     0.0133
   2936 C            0.0504    17.3390     3.5559 C       2   Sp2-C     0.0065
   2937 C           -0.5539    15.6561     6.3357 C       3   Sp3-C     0.0094
   2938 C            3.2400    12.7028     5.0127 C       2   Sp2-C    -0.0231
   2939 C            3.7045    14.7072     2.3724 C       2   Sp2-C     0.0068
   2940 O            1.9338    14.9110     5.9451 O       6   Sp3-O    -0.5539
   2941 C           -3.5693    17.0930     4.0879 C       2   Sp2-C     0.1216
   2942 C           -3.2546    18.4951     3.8176 C       2   Sp2-C    -0.0125
   2943 C           -1.9049    18.6223     3.5484 C       2   Sp2-C    -0.0224
   2944 C           -1.4133    17.3075     3.7160 C       2   Sp2-C     0.1311
   2945 O           -2.2589    16.2390     4.0650 O       5   Sp2-O    -0.4813
   2946 O            3.7629    12.2894     2.2331 O       6   Sp3-O    -0.5500
   2947 C            4.2895    13.4759     1.9109 C       2   Sp2-C     0.1370
   2948 C            5.3317    13.9376     1.1880 C       2   Sp2-C    -0.0350
   2949 C            6.2207    12.9445     0.5348 C       2   Sp2-C    -0.0497
   2950 C            6.1102    11.5700     0.6628 C       1   Sp1-C    -0.0272
   2951 O           -0.9824    14.3970     8.3760 O       5   Sp2-O    -0.4826
   2952 C            0.6520    14.6385    10.6052 C       1   Sp1-C     0.1770
   2953 C            1.2236    15.5001     9.6983 C       2   Sp2-C    -0.0080
   2954 C            0.7630    15.8810     8.3728 C       2   Sp2-C     0.0267
   2955 C           -0.3228    15.2587     7.8178 C       2   Sp2-C     0.1911
   2956 C            3.3513    11.2757     5.2458 C       3   Sp3-C    -0.0348
   2957 C            3.1545    10.3192     6.1850 C       3   Sp3-C    -0.0387
   2958 C            5.1445     9.5468     6.1860 C       2   Sp2-C     0.0219
   2959 C            5.6739    10.1679     7.5022 C       2   Sp2-C     0.1223
   2960 O            6.5566     9.4763     8.3494 O       6   Sp3-O    -0.5827
   2961 C            5.3400    11.3891     7.7469 C       2   Sp2-C    -0.0236
   2962 C           -4.7685    16.6638     4.3130 C       2   Sp2-C    -0.0118
   2963 H           -0.9283    12.9815     6.1442 H       4   all-H     0.0752
   2964 H            0.8787    11.3214     5.2403 H       4   all-H     0.0703
   2965 H           -0.7219    14.8567     3.6289 H       4   all-H     0.1137
   2966 H            1.3520    13.2554     2.8419 H       4   all-H     0.1027
   2967 H            0.5711    18.3325     3.4070 H       4   all-H     0.1202
   2968 H           -0.3370    16.7082     6.0293 H       4   all-H     0.0996
   2969 H           -1.6503    15.4758     6.0391 H       4   all-H     0.1021
   2970 H            3.4558    12.3548     3.3181 H       4   all-H     0.2276
   2971 H            4.0286    13.3999     5.2956 H       4   all-H     0.1344
   2972 H            4.2415    15.6280     2.2093 H       4   all-H     0.0651
   2973 H           -3.9138   -18.8173     3.8554 H       4   all-H     0.0564
   2974 H           -1.2751   -18.6727     3.3181 H       4   all-H     0.0470
   2975 H            5.4689    15.0127     1.0726 H       4   all-H     0.0395
   2976 H            7.1040    13.2142    -0.0803 H       4   all-H     0.0381
   2977 H            2.1397    15.8693    10.1421 H       4   all-H     0.0619
   2978 H            1.1978    16.6702     7.8252 H       4   all-H     0.0982
   2979 H            2.7246    10.0951     7.1464 H       4   all-H     0.0679
   2980 H            3.7595     4.3326     2.2581 H       4   all-H     0.2998
   2981 H            4.6942    12.0113     7.1240 H       4   all-H     0.0506
   2982 H            5.6476    11.8568     8.6738 H       4   all-H     0.1308
   2983 H           -5.6087    17.3577     4.3984 H       4   all-H     0.0760
   2984 H           -4.9703    15.6358     4.4382 H       4   all-H     0.1060
   2985 C            2.9930     6.1056     2.4276 C       3   Sp3-C     0.1180
   2986 C            1.9784     6.8939     1.5488 C       2   Sp2-C    -0.0135
   2987 C            1.8250     6.6663     0.2787 C       2   Sp2-C    -0.0269
   2988 C            2.9635     5.8986    -0.1643 C       2   Sp2-C    -0.0223
   2989 C            5.2530     5.0332     0.0525 C       2   Sp2-C     0.1606
   2990 O            5.7212     4.5359     1.2688 O       5   Sp2-O    -0.5191
   2991 C            5.5205     5.6136     2.1650 C       2   Sp2-C     0.1598
   2992 C            4.4080     6.5396     1.7514 C       3   Sp3-C     0.0174
   2993 C            4.3741     6.1866     0.2057 C       3   Sp3-C     0.0179
   2994 C            6.2733     5.6977     3.2957 C       2   Sp2-C     0.0033
   2995 C            2.7596     6.8553     3.7911 C       3   Sp3-C     0.0124
   2996 C            2.6596     4.7412    -1.1720 C       3   Sp3-C    -0.0347
   2997 C            5.5866     4.6130    -1.2143 C       2   Sp2-C     0.0028
   2998 O            2.8962     4.6884     2.6095 O       6   Sp3-O    -0.5734
   2999 C            5.6853     8.4929     5.4433 C       2   Sp2-C     0.1619
   3000 C            6.7228     7.7709     6.1201 C       2   Sp2-C     0.0152
   3001 C            7.0742     6.6204     5.3805 C       2   Sp2-C    -0.0355
   3002 C            6.2047     6.7136     4.2916 C       2   Sp2-C     0.1099
   3003 O            5.3221     7.8586     4.1284 O       5   Sp2-O    -0.4784
   3004 O            4.9430     6.6091    -2.4690 O       5   Sp2-O    -0.4737
   3005 C            5.4231     5.3712    -2.4388 C       2   Sp2-C     0.1355
   3006 C            6.0253     4.8131    -3.6055 C       2   Sp2-C    -0.0436
   3007 C            6.0102     5.7658    -4.6520 C       2   Sp2-C    -0.0447
   3008 C            5.3245     6.8557    -4.0805 C       2   Sp2-C     0.0988
   3009 O            1.1460     7.0145     5.6412 O       5   Sp2-O    -0.4442
   3010 C           -0.3451     6.0423     5.8258 C       2   Sp2-C     0.0989
   3011 C           -0.4557     5.1374     4.8062 C       2   Sp2-C    -0.0102
   3012 C            0.6917     5.4163     4.0141 C       2   Sp2-C     0.0250
   3013 C            1.5181     6.3927     4.5205 C       2   Sp2-C     0.1734
   3014 C            1.1497     4.4786    -1.4924 C       2   Sp2-C     0.1321
   3015 C            0.6704     5.1784    -2.5629 C       2   Sp2-C    -0.0238
   3016 C           -0.6307     4.6876    -2.7499 C       2   Sp2-C    -0.0046
   3017 C           -0.9221     3.7460    -1.7166 C       2   Sp2-C     0.0954
   3018 O            0.3762     3.6803    -0.7295 O       5   Sp2-O    -0.4620
   3019 C           -2.0995     3.1554    -1.5917 C       2   Sp2-C    -0.0263
   3020 C            4.2250    10.0600     5.2445 C       3   Sp3-C     0.0175
   3021 H            1.2983     7.6037     1.9884 H       4   all-H     0.1079
   3022 H            1.0149     6.9634    -0.3554 H       4   all-H     0.0682
   3023 H            4.5856     7.6221     1.9581 H       4   all-H     0.0965
   3024 H            4.7318     7.0086    -0.4255 H       4   all-H     0.1405
   3025 H            7.0679     4.9513     3.4258 H       4   all-H     0.0422
   3026 H            3.7615     6.8899     4.3745 H       4   all-H     0.1186
   3027 H            2.9261     7.9607     3.7074 H       4   all-H     0.0800
   3028 H            3.1498     5.1425    -2.0715 H       4   all-H     0.0618
   3029 H            3.1820     3.8198    -0.9194 H       4   all-H     0.0640
   3030 H            6.0864     3.6780    -1.2753 H       4   all-H     0.0484
   3031 H            7.1866     8.0118     7.0879 H       4   all-H     0.1272
   3032 H            7.8263     5.9047     5.6120 H       4   all-H     0.0531
   3033 H            6.4108     3.8216    -3.6587 H       4   all-H     0.0265
   3034 H            6.3480     5.6353    -5.6480 H       4   all-H     0.0306
   3035 H           -1.1841     4.2989     4.6746 H       4   all-H     0.1014
   3036 H            0.9155     4.9048     3.0858 H       4   all-H     0.1152
   3037 H            1.2168     5.9376    -3.1272 H       4   all-H     0.0631
   3038 H           -1.2813     4.9001    -3.5551 H       4   all-H     0.0822
   3039 H           -2.7790     3.5372    -2.4003 H       4   all-H     0.0847
   3040 H           -2.3814     2.4625    -0.8082 H       4   all-H     0.0703
   3041 H            2.2600    15.5102     5.2487 H       4   all-H     0.3289
   3042 H            6.7591    10.1523     9.0917 H       4   all-H     0.3122
   3043 C           -5.3865    14.8051    14.8341 C       2   Sp2-C     0.1677
   3044 C           -5.8461    15.7959    13.8815 C       2   Sp2-C    -0.0074
   3045 C           -6.8558    16.7193    14.0516 C       2   Sp2-C    -0.0268
   3046 C           -7.8650    16.7060    14.9971 C       2   Sp2-C     0.1366
   3047 C           -8.8606    17.8000    14.9063 C       3   Sp3-C    -0.0014
   3048 O           -8.1346    15.8175    15.9238 O       6   Sp3-O    -0.5086
   3049 O           -4.7128    13.9220    14.4525 O       5   Sp2-O    -0.4772
   3050 C           -9.1869    18.2490    13.5266 C       2   Sp2-C     0.1452
   3051 C          -10.4410    17.7091    13.0541 C       2   Sp2-C    -0.0103
   3052 C          -10.6796    18.4994    11.9982 C       2   Sp2-C    -0.0098
   3053 C           -9.6533   -18.5382    11.8974 C       2   Sp2-C     0.1067
   3054 O           -8.5465   -18.8571    12.9997 O       5   Sp2-O    -0.4664
   3055 C           -9.5815   -17.6314    11.0872 C       2   Sp2-C    -0.0269
   3056 C           -5.6318    14.8249    16.4412 C       3   Sp3-C     0.0122
   3057 C           -3.5113    13.4592    19.1748 C       2   Sp2-C     0.1035
   3058 C           -2.7044    13.2494    18.0183 C       2   Sp2-C    -0.0094
   3059 C           -3.3724    13.7514    16.8739 C       2   Sp2-C     0.0032
   3060 C           -4.5684    14.2285    17.3614 C       2   Sp2-C     0.1401
   3061 O           -4.8630    14.2297    18.7067 O       5   Sp2-O    -0.4530
   3062 H           -5.1968    15.8136    12.9855 H       4   all-H     0.1181
   3063 H           -6.9011    17.5376    13.3359 H       4   all-H     0.0844
   3064 H           -9.7885    17.4763    15.5456 H       4   all-H     0.1267
   3065 H           -8.4527    18.6511    15.4545 H       4   all-H     0.0568
   3066 H          -11.0400    16.8699    13.4713 H       4   all-H     0.1131
   3067 H          -11.6067    18.4428    11.3874 H       4   all-H     0.0593
   3068 H          -10.3482   -17.5170    10.3691 H       4   all-H     0.0568
   3069 H           -8.7724   -16.9021    11.0484 H       4   all-H     0.0722
   3070 H           -6.0042    15.7881    16.8041 H       4   all-H     0.0790
   3071 H           -6.6083    14.3875    16.7422 H       4   all-H     0.1109
   3072 H           -1.7359    12.8379    17.9990 H       4   all-H     0.1016
   3073 H           -3.0137    13.7188    15.8416 H       4   all-H     0.1003
   3074 C           -4.5081    -0.4784    -0.9235 C       2   Sp2-C     0.1569
   3075 C           -4.9332    -1.2480     0.2825 C       2   Sp2-C    -0.0436
   3076 C           -4.3034    -2.2731     0.8430 C       2   Sp2-C    -0.0260
   3077 C           -3.0753    -3.0401     0.4529 C       2   Sp2-C     0.1772
   3078 C           -2.5394    -2.9911    -1.0405 C       3   Sp3-C     0.0284
   3079 O           -2.4418    -3.6885     1.1720 O       5   Sp2-O    -0.4749
   3080 O           -3.5079    -0.3192    -1.4916 O       5   Sp2-O    -0.4836
   3081 C           -2.9958    -4.2397    -1.8228 C       2   Sp2-C     0.1468
   3082 C           -3.4789    -5.3269    -1.1067 C       2   Sp2-C     0.0004
   3083 C           -3.7624    -6.2670    -2.0975 C       2   Sp2-C    -0.0198
   3084 C           -3.4157    -5.6582    -3.3936 C       2   Sp2-C     0.0972
   3085 O           -2.9118    -4.1569    -3.1713 O       5   Sp2-O    -0.4812
   3086 C           -3.6178    -6.2835    -4.4245 C       2   Sp2-C    -0.0328
   3087 C           -5.6898     0.3762    -1.5063 C       3   Sp3-C     0.0048
   3088 C           -6.7203    -1.2788    -5.5380 C       1   Sp1-C     0.1343
   3089 C           -5.6743    -1.6637    -4.7279 C       2   Sp2-C    -0.0446
   3090 C           -5.5262    -1.0929    -3.3570 C       2   Sp2-C    -0.0253
   3091 C           -6.1772    -0.0482    -2.8943 C       2   Sp2-C     0.1385
   3092 O           -7.0320     0.8383    -3.4008 O       6   Sp3-O    -0.5711
   3093 H           -5.8285    -0.8334     0.7375 H       4   all-H     0.0679
   3094 H           -4.7039    -2.5181     1.8290 H       4   all-H     0.0572
   3095 H           -2.9889    -2.0819    -1.5067 H       4   all-H     0.1273
   3096 H           -1.5083    -2.7000    -1.1199 H       4   all-H     0.1440
   3097 H           -3.5188    -5.4927    -0.0609 H       4   all-H     0.0805
   3098 H           -4.2387    -7.2360    -1.8805 H       4   all-H     0.0516
   3099 H           -4.1414    -7.2283    -4.3996 H       4   all-H     0.0393
   3100 H           -3.4333    -5.8247    -5.3962 H       4   all-H     0.0987
   3101 H           -6.4738     0.5216    -0.8070 H       4   all-H     0.0816
   3102 H           -5.2781     1.3670    -1.6224 H       4   all-H     0.0840
   3103 H           -5.0426    -2.4168    -5.1334 H       4   all-H     0.0533
   3104 H           -4.7221    -1.5861    -2.8135 H       4   all-H     0.0867
   3105 C          -16.5963    -8.6319   -16.9455 C       2   Sp2-C     0.1568
   3106 O          -16.2049    -8.1920   -18.2400 O       5   Sp2-O    -0.4672
   3107 C          -14.8440    -7.7337   -17.8645 C       2   Sp2-C     0.1195
   3108 C          -14.5177    -7.6906   -16.5224 C       2   Sp2-C    -0.0372
   3109 C          -15.6321    -8.3441   -15.9387 C       2   Sp2-C     0.0033
   3110 C          -17.8261    -9.2139   -16.6924 C       2   Sp2-C     0.0230
   3111 C          -12.6031    -7.0876   -18.7460 C       2   Sp2-C     0.1176
   3112 O          -11.9658    -6.5231    18.7927 O       5   Sp2-O    -0.4816
   3113 C          -10.5205    -6.5027   -19.0786 C       2   Sp2-C     0.0980
   3114 C          -10.5110    -6.9849   -17.7394 C       2   Sp2-C    -0.0108
   3115 C          -11.8919    -7.3782   -17.5801 C       2   Sp2-C    -0.0311
   3116 C          -13.9939    -7.3194   -18.9235 C       2   Sp2-C     0.0121
   3117 C          -18.2332    -9.6115   -15.3782 C       2   Sp2-C     0.1298
   3118 C           17.8979   -10.3062   -15.4006 C       2   Sp2-C    -0.0098
   3119 C           17.5104   -10.3564   -14.0684 C       2   Sp2-C    -0.0283
   3120 C           18.5833    -9.8747   -13.1924 C       2   Sp2-C     0.0906
   3121 O          -17.6096    -9.3234   -14.1158 O       5   Sp2-O    -0.4722
   3122 C          -18.6248    -9.9599   -11.9877 C       2   Sp2-C    -0.0217
   3123 H          -13.6387    -7.2926   -16.0567 H       4   all-H     0.0293
   3124 H          -15.7461    -8.4374   -14.8584 H       4   all-H     0.0978
   3125 H          -18.5103    -9.2378   -17.5813 H       4   all-H     0.1275
   3126 H           -9.6524    -7.0200   -17.0530 H       4   all-H     0.1076
   3127 H          -12.3045    -7.8424   -16.7443 H       4   all-H     0.0432
   3128 H          -14.5196    -7.1423    18.7927 H       4   all-H     0.0831
   3129 H           17.3481   -10.5643   -16.2632 H       4   all-H     0.0805
   3130 H           16.6099   -10.7440   -13.7347 H       4   all-H     0.0472
   3131 H           17.9419   -10.4070   -11.3056 H       4   all-H     0.0493
   3132 H          -17.7838    -9.5610   -11.4567 H       4   all-H     0.1065
   3133 C           14.9610     1.1521    17.7108 C       2   Sp2-C     0.1568
   3134 O           15.0516    -0.1434    17.3384 O       5   Sp2-O    -0.4690
   3135 C           16.5666    -0.3334    17.7188 C       2   Sp2-C     0.0994
   3136 C           17.1873     0.8074    18.2220 C       2   Sp2-C    -0.0359
   3137 C           16.1910     1.7665    18.2081 C       2   Sp2-C    -0.0078
   3138 C           13.7587     1.8710    17.7047 C       2   Sp2-C     0.0151
   3139 C           18.6536    -1.6643    17.3939 C       2   Sp2-C     0.1451
   3140 O          -18.0058    -2.8042    17.8212 O       6   Sp3-O    -0.5685
   3141 C          -15.7689    -1.4046    17.1259 C       1   Sp1-C     0.0362
   3142 C          -16.6722    -0.4356    16.6834 C       2   Sp2-C    -0.0071
   3143 C          -18.0643    -0.5955    16.8182 C       2   Sp2-C    -0.0025
   3144 C           17.2088    -1.5519    17.5104 C       2   Sp2-C     0.0008
   3145 C           13.6252     3.2264    18.0816 C       2   Sp2-C     0.1316
   3146 C           12.3657     3.8187    17.8105 C       2   Sp2-C    -0.0090
   3147 C           12.5114     5.0768    18.3491 C       2   Sp2-C    -0.0186
   3148 C           13.8855     5.2837    18.7772 C       2   Sp2-C     0.1017
   3149 O           14.7045     3.9961    18.6118 O       5   Sp2-O    -0.4767
   3150 C           14.2965     6.4281    19.1755 C       2   Sp2-C    -0.0322
   3151 H           18.2065     0.8788    18.5435 H       4   all-H     0.0436
   3152 H           16.2799     2.7436    18.6082 H       4   all-H     0.0982
   3153 H           12.9386     1.3704    17.1905 H       4   all-H     0.0643
   3154 H          -16.3353     0.4827    16.2000 H       4   all-H     0.1040
   3155 H          -18.6361     0.2503    16.3525 H       4   all-H     0.0843
   3156 H           16.5950    -2.4320    17.2732 H       4   all-H     0.0739
   3157 H           11.5036     3.3895    17.3071 H       4   all-H     0.0952
   3158 H           11.7233     5.8545    18.4248 H       4   all-H     0.0621
   3159 H           13.5924     7.2542    19.1343 H       4   all-H     0.0459
   3160 H           15.3324     6.5590   -19.1793 H       4   all-H     0.0996
   3161 C           -2.5229     0.9999   -15.3755 C       2   Sp2-C     0.1138
   3162 O           -4.0245     1.5975   -15.3730 O       6   Sp3-O    -0.4284
   3163 C           -4.1363     1.1332   -13.7289 C       3   Sp3-C     0.1098
   3164 C           -2.9786     0.5177   -13.1137 C       2   Sp2-C    -0.0243
   3165 C           -2.0062     0.3634   -14.1279 C       2   Sp2-C    -0.0189
   3166 C           -1.7143     1.0313   -16.3778 C       1   Sp1-C    -0.0010
   3167 C           -5.0774     1.3152   -12.8380 C       1   Sp1-C    -0.0063
   3168 H           -2.8533     0.1595   -12.0790 H       4   all-H     0.1190
   3169 H           -1.0563    -0.1383   -14.1302 H       4   all-H     0.1153
   3170 H           -1.0483     1.0495   -17.2485 H       4   all-H     0.0607
   3171 H           -5.9593     1.5277   -12.3145 H       4   all-H     0.0579
   3172 C          -11.9713   -12.6522     0.6005 C       2   Sp2-C     0.0987
   3173 O          -11.8966   -11.4999     1.6550 O       5   Sp2-O    -0.4773
   3174 C          -12.8071   -12.0557     2.5467 C       2   Sp2-C     0.1318
   3175 C          -13.3491   -13.3386     2.3373 C       2   Sp2-C    -0.0276
   3176 C          -12.7805   -13.7496     1.1543 C       2   Sp2-C    -0.0265
   3177 C          -11.4288   -12.7476    -0.5740 C       1   Sp1-C    -0.0456
   3178 C          -13.2736   -11.3431     3.7489 C       2   Sp2-C    -0.0115
   3179 H          -14.0144   -13.8762     2.9556 H       4   all-H     0.0563
   3180 H          -12.9260   -14.6472     0.6596 H       4   all-H     0.0491
   3181 H          -10.9892   -12.7804    -1.4944 H       4   all-H     0.0362
   3182 H          -14.0850   -11.6952     4.3462 H       4   all-H     0.0683
   3183 C           -2.9216    -6.9144     4.9433 C       2   Sp2-C     0.1409
   3184 O           -1.5100    -6.4642     4.5206 O       5   Sp2-O    -0.4746
   3185 C           -1.8390    -6.3262     3.0731 C       2   Sp2-C     0.1256
   3186 C           -3.1949    -6.8207     2.8343 C       2   Sp2-C    -0.0286
   3187 C           -3.9433    -7.1472     3.9739 C       2   Sp2-C    -0.0527
   3188 C           -3.3575    -7.1416     6.0840 C       2   Sp2-C     0.1430
   3189 C           -1.0400    -6.0828     2.0740 C       1   Sp1-C     0.0272
   3190 H           -3.6011    -6.9875     1.8228 H       4   all-H     0.0448
   3191 H           -4.9648    -7.4894     3.9781 H       4   all-H     0.0304
   3192 H           -4.4058    -7.2888     6.2918 H       4   all-H     0.0647
   3193 H           -0.4693    -5.8643     1.1619 H       4   all-H     0.1283
   3194 C          -10.5743    18.6739    -5.1673 C       2   Sp2-C     0.1396
   3195 O           -9.7176    17.8790    -6.1310 O       5   Sp2-O    -0.4736
   3196 C           -8.9997    17.2038    -4.9300 C       2   Sp2-C     0.1017
   3197 C           -9.6063    17.5123    -3.6350 C       2   Sp2-C    -0.0353
   3198 C          -10.5558    18.5311    -3.7468 C       2   Sp2-C    -0.0435
   3199 C          -11.5528   -18.5388    -5.4227 C       2   Sp2-C     0.1372
   3200 C           -7.8902    16.4393    -5.0210 C       1   Sp1-C    -0.0242
   3201 H           -9.3329    17.1259    -2.6889 H       4   all-H     0.0557
   3202 H          -11.1759   -19.0364    -2.9977 H       4   all-H     0.0764
   3203 H          -12.1408   -18.1335    -4.6014 H       4   all-H     0.0738
   3204 H           -7.0474    15.7999    -4.8488 H       4   all-H     0.0690
   3205 C           11.2410    -4.5621    10.4417 C       3   Sp3-C     0.0677
   3206 C            9.8931    -4.9201    10.9647 C       2   Sp2-C    -0.0509
   3207 C           10.0002    -6.2158    10.9121 C       2   Sp2-C    -0.0157
   3208 C           11.3042    -6.6604    10.3807 C       3   Sp3-C     0.1167
   3209 C           12.5206    -6.7891     8.1358 C       2   Sp2-C     0.1770
   3210 O           13.3398    -5.6985     8.0199 O       5   Sp2-O    -0.4839
   3211 C           12.4860    -4.5629     8.0711 C       2   Sp2-C     0.1553
   3212 C           11.1732    -4.8069     8.8195 C       3   Sp3-C    -0.0037
   3213 C           11.2387    -6.4487     8.8832 C       3   Sp3-C     0.0369
   3214 C           12.6385    -3.4879     7.2945 C       2   Sp2-C     0.0467
   3215 C           11.5944    -3.0766    10.6595 C       3   Sp3-C    -0.0380
   3216 C           11.5771    -8.1044    10.8457 C       3   Sp3-C     0.0101
   3217 C           12.8243    -7.9696     7.5437 C       2   Sp2-C     0.0159
   3218 O           12.4164    -5.6937    10.8512 O       5   Sp2-O    -0.5082
   3219 C           11.1593    -0.1704     6.6786 C       2   Sp2-C     0.2095
   3220 C           10.2372    -0.7902     7.6695 C       2   Sp2-C    -0.0065
   3221 C           10.7659    -2.0339     7.9965 C       2   Sp2-C    -0.0382
   3222 C           11.9419    -2.2582     7.2398 C       2   Sp2-C     0.1499
   3223 O           12.4369    -1.3492     6.3629 O       5   Sp2-O    -0.4484
   3224 O           10.6458    -9.0785     8.2694 O       5   Sp2-O    -0.4765
   3225 C           11.9558    -9.1333     7.6556 C       2   Sp2-C     0.1262
   3226 C           12.5119   -10.3140     7.1731 C       2   Sp2-C    -0.0204
   3227 C           11.5649   -11.2728     7.5058 C       2   Sp2-C    -0.0067
   3228 C           10.4177   -10.5681     8.0705 C       2   Sp2-C     0.1383
   3229 O           13.0300    -1.8803    12.4723 O       5   Sp2-O    -0.5071
   3230 C           13.3234    -2.3970    13.8905 C       2   Sp2-C     0.1002
   3231 C           12.7079    -3.7187    13.9996 C       2   Sp2-C    -0.0100
   3232 C           12.1413    -4.0696    12.8220 C       2   Sp2-C     0.0004
   3233 C           12.3432    -2.9657    11.9895 C       2   Sp2-C     0.1412
   3234 C           10.9986    -8.3607    12.2474 C       2   Sp2-C     0.1471
   3235 C           11.7996    -8.0558    13.3397 C       2   Sp2-C    -0.0122
   3236 C           11.0525    -8.1678    14.4335 C       2   Sp2-C    -0.0309
   3237 C            9.6429    -8.6250    14.1013 C       3   Sp3-C     0.0647
   3238 O            9.7610    -8.7844    12.4226 O       5   Sp2-O    -0.4610
   3239 C           13.9758    -1.7747    14.8657 C       2   Sp2-C    -0.0266
   3240 C            9.4043   -11.1787     8.4008 C       2   Sp2-C    -0.0065
   3241 H            9.0755    -4.3412    11.3903 H       4   all-H     0.0791
   3242 H            9.2196    -6.9107    11.2729 H       4   all-H     0.1005
   3243 H           10.3209    -4.3897     8.2965 H       4   all-H     0.0455
   3244 H           10.4568    -6.9296     8.4002 H       4   all-H     0.0979
   3245 H           13.4639    -3.6268     6.5786 H       4   all-H     0.1113
   3246 H           12.1366    -2.6800     9.7960 H       4   all-H     0.0545
   3247 H           10.7508    -2.3343    10.6950 H       4   all-H     0.0285
   3248 H           11.1111    -8.8566    10.1611 H       4   all-H     0.1304
   3249 H           12.6463    -8.3338    10.7024 H       4   all-H     0.0802
   3250 H           13.7328    -8.0028     7.0162 H       4   all-H     0.0904
   3251 H            9.3558    -0.3050     8.0530 H       4   all-H     0.1019
   3252 H           10.3326    -2.7001     8.7578 H       4   all-H     0.0210
   3253 H           13.5267   -10.4590     6.7705 H       4   all-H     0.0546
   3254 H           11.5934   -12.3670     7.3687 H       4   all-H     0.1134
   3255 H           12.6403    -4.3095    14.8971 H       4   all-H     0.0853
   3256 H           11.6358    -5.0217    12.5452 H       4   all-H     0.0984
   3257 H           12.8265    -7.7711    13.3688 H       4   all-H     0.0675
   3258 H           11.3833    -7.9788    15.4419 H       4   all-H     0.0592
   3259 H           14.1257    -2.3389    15.7757 H       4   all-H     0.0636
   3260 H           14.2302    -0.7739    14.8145 H       4   all-H     0.0772
   3261 H            9.3612   -12.2371     8.2234 H       4   all-H     0.0531
   3262 H            8.5465   -10.7036     8.8862 H       4   all-H     0.0818
   3263 C            8.5804   -14.3909    13.2523 C       3   Sp3-C     0.0988
   3264 C            8.7574   -14.1668    11.7782 C       2   Sp2-C    -0.0174
   3265 C            9.4459   -15.2333    11.5361 C       2   Sp2-C    -0.0237
   3266 C            9.6537   -16.1007    12.7143 C       3   Sp3-C     0.1280
   3267 C           11.0466   -15.9350    14.8586 C       2   Sp2-C     0.1600
   3268 O           10.3401   -15.3011    15.9056 O       5   Sp2-O    -0.4530
   3269 C            9.9073   -14.1126    15.4298 C       2   Sp2-C     0.1529
   3270 C            9.9361   -13.9660    13.9324 C       3   Sp3-C    -0.0047
   3271 C           10.7087   -15.3148    13.5147 C       3   Sp3-C     0.0250
   3272 C            9.3590   -13.1881    16.3167 C       2   Sp2-C     0.0125
   3273 C            7.3098   -13.6565    13.8162 C       3   Sp3-C    -0.0067
   3274 C           10.1604   -17.5317    12.1921 C       3   Sp3-C    -0.0094
   3275 C           11.9569   -16.9654    14.9655 C       2   Sp2-C    -0.0063
   3276 O            8.5299   -15.9660    13.4858 O       5   Sp2-O    -0.4420
   3277 C            8.4840    -9.6661    16.2761 C       2   Sp2-C     0.0878
   3278 C            9.2506    -9.7154    15.0731 C       2   Sp2-C    -0.0139
   3279 C            9.5028   -11.1226    14.9858 C       2   Sp2-C    -0.0276
   3280 C            9.0527   -11.7989    16.1089 C       2   Sp2-C     0.1132
   3281 O            8.3224   -11.1146    17.0639 O       5   Sp2-O    -0.4761
   3282 O           12.9684   -16.9883    12.6554 O       5   Sp2-O    -0.4908
   3283 C           12.8165   -17.4606    13.9147 C       2   Sp2-C     0.1213
   3284 C           13.4364   -18.6466    14.2547 C       2   Sp2-C    -0.0332
   3285 C           14.1890    18.9121    13.2043 C       2   Sp2-C    -0.0375
   3286 C           13.9415   -18.1915    12.2175 C       2   Sp2-C     0.0917
   3287 O            6.4102   -12.3195    11.7848 O       5   Sp2-O    -0.4589
   3288 C            5.9661   -10.7801    11.8387 C       2   Sp2-C     0.0986
   3289 C            6.1045   -10.3037    13.1933 C       2   Sp2-C    -0.0199
   3290 C            6.5447   -11.3676    13.9881 C       2   Sp2-C    -0.0171
   3291 C            6.7134   -12.4029    13.1347 C       2   Sp2-C     0.1273
   3292 C            9.2777   -18.0380    11.0474 C       2   Sp2-C     0.1439
   3293 C            7.9209   -17.9444    11.2506 C       2   Sp2-C    -0.0028
   3294 C            7.1801   -18.5967    10.2136 C       2   Sp2-C    -0.0273
   3295 C            8.1441    18.9263     9.4541 C       2   Sp2-C     0.0696
   3296 O            9.7879   -18.7500    10.0563 O       5   Sp2-O    -0.4682
   3297 C            5.4678   -10.0304    10.8676 C       2   Sp2-C    -0.0465
   3298 C           14.5779   -18.5473    11.1485 C       2   Sp2-C    -0.0357
   3299 H            8.5305   -13.3217    11.1980 H       4   all-H     0.0839
   3300 H            9.7841   -15.4120    10.4667 H       4   all-H     0.0487
   3301 H           10.2958   -13.0237    13.6284 H       4   all-H     0.0307
   3302 H           11.5910   -15.3254    12.8996 H       4   all-H     0.0774
   3303 H            9.2193   -13.4512    17.3641 H       4   all-H     0.0949
   3304 H            6.6148   -14.5573    13.6468 H       4   all-H     0.1366
   3305 H            7.3959   -13.5099    14.8997 H       4   all-H     0.0638
   3306 H           11.2350   -17.5821    11.9268 H       4   all-H     0.1124
   3307 H           10.1689   -18.1751    13.0605 H       4   all-H     0.0639
   3308 H           11.9601   -17.2375    16.0195 H       4   all-H     0.0727
   3309 H            8.9187    -7.8879    14.4074 H       4   all-H     0.0710
   3310 H           10.0451   -11.5354    14.1644 H       4   all-H     0.0472
   3311 H           13.3496    19.0485    15.2853 H       4   all-H     0.0438
   3312 H           14.7880    17.9551    13.1315 H       4   all-H     0.0743
   3313 H            5.9664    -9.2841    13.4859 H       4   all-H     0.0483
   3314 H            6.7900   -11.4017    15.0270 H       4   all-H     0.0790
   3315 H            7.5153   -17.4983    12.1270 H       4   all-H     0.1021
   3316 H            6.0862   -18.6437    10.1582 H       4   all-H     0.0466
   3317 H            5.3039    -9.0142    11.2689 H       4   all-H     0.0372
   3318 H            5.2501   -10.3474     9.8281 H       4   all-H     0.0678
   3319 H           15.1613    18.6134    11.1521 H       4   all-H     0.0962
   3320 H           14.4430   -18.1301    10.2118 H       4   all-H     0.0589
   3321 C           16.2379     0.1473    11.3534 C       3   Sp3-C     0.1181
   3322 C           17.6151    -0.3937    11.1640 C       2   Sp2-C    -0.0108
   3323 C           17.8145    -1.7434    11.4050 C       2   Sp2-C    -0.0307
   3324 C           16.6987    -2.6209    11.6996 C       2   Sp2-C    -0.0260
   3325 C           15.5044    -2.7657     9.5060 C       2   Sp2-C     0.1415
   3326 O           15.3332    -1.7423     8.5609 O       5   Sp2-O    -0.4800
   3327 C           14.7834    -0.6671     9.3050 C       2   Sp2-C     0.1402
   3328 C           15.0552    -0.7144    10.7908 C       3   Sp3-C     0.0153
   3329 C           15.4083    -2.3489    10.9868 C       3   Sp3-C    -0.0081
   3330 C           14.0549     0.3501     8.7731 C       2   Sp2-C    -0.0009
   3331 C           16.0287    -0.0238    12.9412 C       3   Sp3-C    -0.0160
   3332 C           16.8124    -3.7592    12.5556 C       2   Sp2-C    -0.0034
   3333 C           15.5637    -4.0597     9.1664 C       2   Sp2-C     0.0310
   3334 O           16.0329     1.5250    10.9082 O       6   Sp3-O    -0.5979
   3335 C           12.6054     3.0746    10.8583 C       2   Sp2-C     0.0929
   3336 C           12.3716     3.3564     9.4365 C       2   Sp2-C    -0.0104
   3337 C           12.9759     2.4317     8.6137 C       2   Sp2-C    -0.0177
   3338 C           13.4699     1.4656     9.4479 C       2   Sp2-C     0.1076
   3339 O           13.4727     1.7303    10.8906 O       5   Sp2-O    -0.5229
   3340 O           15.0035    -5.4124    11.2338 O       6   Sp3-O    -0.5690
   3341 C           15.5177    -5.2706    10.0256 C       2   Sp2-C     0.1819
   3342 C           16.0499    -6.1980     9.1871 C       2   Sp2-C     0.0009
   3343 C           16.3933    -7.5310     9.7406 C       2   Sp2-C    -0.0240
   3344 C           15.9287    -8.0588    10.9577 C       1   Sp1-C     0.0194
   3345 O           18.0221     0.9045    14.2033 O       5   Sp2-O    -0.4744
   3346 C           18.0737     2.5620    14.8027 C       2   Sp2-C     0.0732
   3347 C           16.9412     3.2807    14.4100 C       2   Sp2-C    -0.0384
   3348 C           16.2000     2.3027    13.7313 C       2   Sp2-C    -0.0033
   3349 C           16.8405     1.0617    13.6700 C       2   Sp2-C     0.1771
   3350 C           17.9468    -4.1357    13.2614 C       2   Sp2-C     0.1399
   3351 C           17.5399    -5.3568    13.8397 C       2   Sp2-C    -0.0295
   3352 C          -17.4821    -5.4615    14.9564 C       2   Sp2-C     0.0026
   3353 C          -17.2075    -4.0599    14.4774 C       2   Sp2-C     0.1089
   3354 O          -18.1667    -3.4504    13.4719 O       5   Sp2-O    -0.4870
   3355 C          -16.1499    -3.5285    15.0130 C       2   Sp2-C    -0.0155
   3356 C           12.3042     3.6627    11.8702 C       2   Sp2-C    -0.0446
   3357 H           18.4457     0.2834    11.0750 H       4   all-H     0.0839
   3358 H          -18.5152    -2.1224    11.4722 H       4   all-H     0.0846
   3359 H           14.1692    -0.3791    11.3124 H       4   all-H     0.1171
   3360 H           14.6239    -2.9225    11.5600 H       4   all-H     0.1125
   3361 H           13.9692     0.2210     7.7269 H       4   all-H     0.0957
   3362 H           14.9739     0.1643    13.1589 H       4   all-H     0.0537
   3363 H           16.1837    -1.0721    13.2173 H       4   all-H     0.0604
   3364 H           13.8611    -5.6205    11.2245 H       4   all-H     0.3598
   3365 H           15.9179    -4.3930    12.6561 H       4   all-H     0.1052
   3366 H           15.5858    -4.0535     8.0564 H       4   all-H     0.1274
   3367 H           11.8769     4.2226     9.0766 H       4   all-H     0.0626
   3368 H           12.8917     2.4021     7.5281 H       4   all-H     0.0747
   3369 H           16.2833    -5.8428     8.1868 H       4   all-H     0.0821
   3370 H           17.0227    -8.2120     9.1340 H       4   all-H     0.0600
   3371 H           16.6922     4.3045    14.5419 H       4   all-H     0.0343
   3372 H           15.3093     2.5800    13.2564 H       4   all-H     0.0564
   3373 H           16.5667    -5.8426    13.8276 H       4   all-H     0.0523
   3374 H           17.2793    -9.9397   -18.8537 H       4   all-H     0.3219
   3375 H          -15.6013    -4.0147    15.7827 H       4   all-H     0.0548
   3376 H          -15.8924    -2.5046    14.7877 H       4   all-H     0.0836
   3377 H           11.8189     4.6786    11.7593 H       4   all-H     0.0388
   3378 H           12.4906     3.2148    12.8665 H       4   all-H     0.0554
   3379 C           17.1143    -8.3254    18.6345 C       3   Sp3-C     0.1167
   3380 C           15.7652    -7.7950    18.1824 C       2   Sp2-C    -0.0206
   3381 C           14.5948    -8.5552    18.1863 C       2   Sp2-C    -0.0220
   3382 C           14.9580    -9.8877    18.3815 C       2   Sp2-C    -0.0126
   3383 C           17.0198   -11.6273    18.2563 C       2   Sp2-C     0.1119
   3384 O           18.3967   -11.2525    18.7003 O       5   Sp2-O    -0.4837
   3385 C           18.6510   -10.1387    17.9734 C       2   Sp2-C     0.1570
   3386 C           17.3981    -9.3684    17.5845 C       3   Sp3-C    -0.0018
   3387 C           16.2198   -10.4671    17.6592 C       3   Sp3-C    -0.0249
   3388 C          -17.4500    -9.7353    17.5468 C       2   Sp2-C     0.0181
   3389 C           18.1892    -7.1231    18.6540 C       3   Sp3-C     0.0082
   3390 C           14.0452   -10.7107   -19.2775 C       3   Sp3-C    -0.0123
   3391 C           16.5089   -12.8835    18.4823 C       2   Sp2-C     0.0047
   3392 O           17.1809    -8.9954   -18.6524 O       6   Sp3-O    -0.5797
   3393 C          -17.0633    -6.6595    15.6677 C       2   Sp2-C     0.0865
   3394 C          -15.7678    -6.8721    16.0469 C       2   Sp2-C    -0.0419
   3395 C          -15.8082    -8.1174    16.7034 C       2   Sp2-C    -0.0198
   3396 C          -17.1581    -8.6010    16.6903 C       2   Sp2-C     0.1230
   3397 O          -18.1149    -7.8444    16.0555 O       5   Sp2-O    -0.5068
   3398 O           14.2678   -12.7853    17.2582 O       5   Sp2-O    -0.4949
   3399 C           15.3182   -13.5190    17.9353 C       2   Sp2-C     0.1037
   3400 C           15.3094   -14.8753    17.9797 C       2   Sp2-C    -0.0345
   3401 C           14.0205   -15.2319    17.5255 C       2   Sp2-C    -0.0176
   3402 C           13.3399   -14.0496    17.0956 C       2   Sp2-C     0.1171
   3403 O           17.3461    -4.7904    18.9784 O       5   Sp2-O    -0.4962
   3404 C           17.0764    -4.0585   -18.0893 C       2   Sp2-C     0.0889
   3405 C           17.4230    -4.9207   -17.0183 C       2   Sp2-C    -0.0020
   3406 C           17.7891    -6.0846   -17.7173 C       2   Sp2-C     0.0133
   3407 C           17.7213    -5.9576   -19.1038 C       2   Sp2-C     0.1586
   3408 C           12.5797   -10.2400   -19.2664 C       2   Sp2-C     0.1392
   3409 C           11.6688   -10.9787    18.6496 C       2   Sp2-C    -0.0221
   3410 C           10.4348   -10.3693    18.8704 C       2   Sp2-C    -0.0187
   3411 C           10.6691    -9.2345   -18.8762 C       2   Sp2-C     0.1162
   3412 O           12.1847    -9.0998   -18.5789 O       5   Sp2-O    -0.4456
   3413 C            9.7052    -8.4243   -18.5317 C       2   Sp2-C    -0.0180
   3414 C           18.6304    -5.7322    14.5675 C       2   Sp2-C     0.0120
   3415 H           15.8180    -6.7353    17.9204 H       4   all-H     0.0730
   3416 H           13.6079    -8.1919    18.3189 H       4   all-H     0.1003
   3417 H           17.4845    -8.7635    16.6476 H       4   all-H     0.0818
   3418 H           15.9793   -11.0511    16.7845 H       4   all-H     0.0638
   3419 H          -16.5447   -10.2171    17.8462 H       4   all-H     0.0962
   3420 H          -18.1858    -7.4071    19.0928 H       4   all-H     0.0983
   3421 H           18.4375    -6.8717    17.6412 H       4   all-H     0.1022
   3422 H           14.3196   -11.6945    18.8526 H       4   all-H     0.1061
   3423 H           14.4425   -10.6880   -18.2436 H       4   all-H     0.0878
   3424 H           17.3839   -13.3752    18.9516 H       4   all-H     0.1234
   3425 H          -14.9748    -6.2367    15.8955 H       4   all-H     0.0402
   3426 H          -14.9477    -8.6508    17.0897 H       4   all-H     0.0772
   3427 H           16.0937   -15.5469    18.2369 H       4   all-H     0.0404
   3428 H           13.6233   -16.2692    17.5780 H       4   all-H     0.0631
   3429 H           17.6202    -4.8025   -15.9566 H       4   all-H     0.1501
   3430 H           18.0639    -7.0001   -17.2571 H       4   all-H     0.0827
   3431 H           11.9137   -11.8936    18.1020 H       4   all-H     0.0672
   3432 H            9.4917   -10.6640    18.4577 H       4   all-H     0.1135
   3433 H            8.7033    -8.6847   -18.7609 H       4   all-H     0.0660
   3434 H            9.9518    -7.5493   -17.9736 H       4   all-H     0.0787
   3435 H           14.9987     1.6347    10.9677 H       4   all-H     0.3481
   3436 H           18.6559    -3.5121    18.0465 H       4   all-H     0.3212
   3437 C            9.1789     1.5013     9.9921 C       2   Sp2-C     0.2042
   3438 C           10.3392     0.8413    10.5702 C       2   Sp2-C     0.0024
   3439 C           10.5849     0.3210    11.7752 C       2   Sp2-C    -0.0155
   3440 C            9.6815     0.0761    12.9225 C       2   Sp2-C     0.1631
   3441 C           10.4149    -0.4214    14.2218 C       3   Sp3-C    -0.0180
   3442 O            8.5363     0.3316    12.9067 O       5   Sp2-O    -0.4962
   3443 O            8.9735     1.6399     8.8514 O       5   Sp2-O    -0.4875
   3444 C            9.8739    -1.8413    14.6887 C       2   Sp2-C     0.1386
   3445 C            9.3855    -2.6069    13.6967 C       2   Sp2-C    -0.0091
   3446 C            9.0279    -3.8351    14.3264 C       2   Sp2-C    -0.0217
   3447 C            9.3767    -3.7325    15.6785 C       2   Sp2-C     0.0950
   3448 O            9.9818    -2.3074    15.9827 O       5   Sp2-O    -0.4734
   3449 C            9.3096    -4.7326    16.5570 C       2   Sp2-C    -0.0440
   3450 C            8.0665     2.1185    10.9376 C       3   Sp3-C     0.0258
   3451 C            9.5952     5.2901    12.2399 C       2   Sp2-C     0.0751
   3452 C            9.3613     4.5038    13.4064 C       2   Sp2-C    -0.0202
   3453 C            8.7629     3.2921    13.0250 C       2   Sp2-C    -0.0025
   3454 C            8.7098     3.3184    11.6671 C       2   Sp2-C     0.1483
   3455 O            9.1015     4.3736    10.9042 O       5   Sp2-O    -0.4589
   3456 H           11.1378     0.8594     9.8618 H       4   all-H     0.0841
   3457 H           11.5948    -0.0317    11.9383 H       4   all-H     0.0888
   3458 H           11.4554    -0.6016    14.0119 H       4   all-H     0.0631
   3459 H           10.4010     0.3859    14.9584 H       4   all-H     0.0661
   3460 H            9.3283    -2.3665    12.6635 H       4   all-H     0.0591
   3461 H            8.5672    -4.7052    13.8626 H       4   all-H     0.0655
   3462 H            8.9330    -5.6188    16.2635 H       4   all-H     0.0307
   3463 H            9.7203    -4.6237    17.5515 H       4   all-H     0.1280
   3464 H            7.1693     2.4340    10.3638 H       4   all-H     0.0756
   3465 H            7.6752     1.3141    11.5187 H       4   all-H     0.1051
   3466 H            9.7000     4.7279    14.4136 H       4   all-H     0.0898
   3467 H            8.4669     2.5137    13.6924 H       4   all-H     0.1020
   3468 C           11.9470     3.8382   -14.6464 C       2   Sp2-C     0.1601
   3469 C           10.9778     2.9694   -13.9776 C       2   Sp2-C    -0.0326
   3470 C           11.1153     2.0509   -12.9701 C       2   Sp2-C    -0.0202
   3471 C           12.1776     1.5550   -12.2258 C       2   Sp2-C     0.1563
   3472 C           13.5326     2.1668   -12.5383 C       3   Sp3-C     0.0087
   3473 O           12.0653     0.6611   -11.2469 O       6   Sp3-O    -0.4880
   3474 O           12.8378     4.4576   -14.2186 O       5   Sp2-O    -0.5177
   3475 C           14.5786     1.0622   -12.8068 C       2   Sp2-C     0.1570
   3476 C           14.9691     0.2506   -11.7308 C       2   Sp2-C    -0.0075
   3477 C           15.7957    -0.6756   -12.2817 C       2   Sp2-C    -0.0204
   3478 C           15.9855    -0.3738   -13.7127 C       2   Sp2-C     0.0994
   3479 O           14.9713     0.8211   -14.0621 O       5   Sp2-O    -0.4608
   3480 C           16.8580    -0.9922   -14.4671 C       2   Sp2-C    -0.0337
   3481 C           11.7465     4.1923   -16.1767 C       3   Sp3-C    -0.0062
   3482 C           12.0885     0.2588   -18.0647 C       1   Sp1-C     0.0363
   3483 C           12.9796     0.8540   -17.1484 C       2   Sp2-C    -0.0055
   3484 C           12.7749     2.1264   -16.5718 C       2   Sp2-C     0.0018
   3485 C           11.6734     2.9269   -16.8920 C       2   Sp2-C     0.1543
   3486 O           10.7167     2.7776   -17.7510 O       6   Sp3-O    -0.4656
   3487 H            9.9899     2.8768   -14.3395 H       4   all-H     0.0347
   3488 H           10.3511     1.3119   -12.6040 H       4   all-H     0.0715
   3489 H           13.3820     2.8509   -13.3342 H       4   all-H     0.1132
   3490 H           13.8361     2.7727   -11.6282 H       4   all-H     0.0901
   3491 H           14.7046     0.3400   -10.6756 H       4   all-H     0.0612
   3492 H           16.2683    -1.4400   -11.6578 H       4   all-H     0.1041
   3493 H           17.4540    -1.7737   -14.0882 H       4   all-H     0.0583
   3494 H           16.9945    -0.6358   -15.4449 H       4   all-H     0.0735
   3495 H           10.9383     4.8715   -16.3274 H       4   all-H     0.0402
   3496 H           12.4757     4.9808   -16.5536 H       4   all-H     0.0544
   3497 H           13.8903     0.2817   -16.8909 H       4   all-H     0.0776
   3498 H           13.3673     2.4912   -15.7231 H       4   all-H     0.0844
   3499 C            4.4728    -2.8018    17.7392 C       2   Sp2-C     0.1475
   3500 O            4.7064    -1.6450    18.5160 O       5   Sp2-O    -0.4739
   3501 C            6.1277    -1.8372    18.8013 C       2   Sp2-C     0.1133
   3502 C            6.7178    -3.0497    18.3023 C       2   Sp2-C    -0.0458
   3503 C            5.6706    -3.5912    17.5992 C       2   Sp2-C    -0.0067
   3504 C            3.2828    -3.2346    17.1273 C       2   Sp2-C     0.0150
   3505 C            8.1791    -0.7623   -18.7299 C       2   Sp2-C     0.1273
   3506 O            8.6434     0.0830   -17.6514 O       6   Sp3-O    -0.4715
   3507 C           11.2025    -0.3460   -18.9778 C       1   Sp1-C     0.0308
   3508 C           10.3549    -0.9519    18.7066 C       2   Sp2-C     0.0006
   3509 C            8.9481    -1.1257    18.8091 C       2   Sp2-C    -0.0100
   3510 C            6.7793    -0.9434   -18.9667 C       2   Sp2-C     0.0228
   3511 C            3.1764    -4.4244    16.3942 C       2   Sp2-C     0.1400
   3512 C            1.8399    -4.7341    15.9700 C       2   Sp2-C    -0.0014
   3513 C            1.7538    -5.9341    15.2838 C       2   Sp2-C    -0.0073
   3514 C            3.1550    -6.3171    15.3471 C       2   Sp2-C     0.1042
   3515 O            4.1459    -5.3364    16.1119 O       5   Sp2-O    -0.4697
   3516 C            3.3025    -7.4052    14.7425 C       2   Sp2-C    -0.0391
   3517 H            7.6742    -3.3902    18.4735 H       4   all-H     0.0427
   3518 H            5.6686    -4.6116    17.1585 H       4   all-H     0.1108
   3519 H            2.3742    -2.6919    17.3594 H       4   all-H     0.0961
   3520 H           10.8319    -1.1967    17.7579 H       4   all-H     0.1072
   3521 H            8.4490    -1.5858    18.0360 H       4   all-H     0.0641
   3522 H            6.2906    -0.3206   -18.2561 H       4   all-H     0.1360
   3523 H            0.9747    -4.1681    16.1761 H       4   all-H     0.0651
   3524 H            0.9768    -6.3269    14.7305 H       4   all-H     0.0813
   3525 H            2.5226    -8.0103    14.2804 H       4   all-H     0.0560
   3526 H            4.2727    -7.8525    14.5211 H       4   all-H     0.0553
   3527 C           -6.5859   -12.0135    17.6183 C       2   Sp2-C     0.1624
   3528 O           -5.9443   -10.8283    17.8669 O       5   Sp2-O    -0.4749
   3529 C           -5.4989   -10.6060    16.3920 C       2   Sp2-C     0.1014
   3530 C           -5.6662   -11.6966    15.5361 C       2   Sp2-C    -0.0233
   3531 C           -6.4318   -12.5574    16.3340 C       2   Sp2-C     0.0184
   3532 C           -7.2952   -12.6800    18.6317 C       2   Sp2-C     0.0182
   3533 C           -4.5348    -9.0231    14.6894 C       2   Sp2-C     0.1232
   3534 O           -3.7776    -7.8851    14.4318 O       5   Sp2-O    -0.4589
   3535 C           -3.6754    -8.1284    12.8476 C       2   Sp2-C     0.1061
   3536 C           -4.3126    -9.3197    12.4066 C       2   Sp2-C    -0.0362
   3537 C           -4.9131    -9.8000    13.5519 C       2   Sp2-C    -0.0354
   3538 C           -4.8759    -9.4113    16.0129 C       2   Sp2-C    -0.0018
   3539 C           -8.0103   -13.8911    18.4615 C       2   Sp2-C     0.1382
   3540 C           -8.6660   -14.5279   -19.0468 C       2   Sp2-C    -0.0079
   3541 C           -9.1728   -15.7825    19.2181 C       2   Sp2-C    -0.0242
   3542 C           -8.8366   -15.7680    17.8206 C       2   Sp2-C     0.1041
   3543 O           -8.0854   -14.4586    17.2465 O       5   Sp2-O    -0.4751
   3544 C           -9.2548   -16.8245    17.2925 C       2   Sp2-C    -0.0371
   3545 H           -5.1790   -11.8942    14.5568 H       4   all-H     0.0641
   3546 H           -6.8030   -13.5515    16.0356 H       4   all-H     0.1244
   3547 H           -7.3373   -12.1039   -19.0167 H       4   all-H     0.0815
   3548 H           -4.3311    -9.5988    11.3430 H       4   all-H     0.0636
   3549 H           -5.5231   -10.6184    13.4974 H       4   all-H     0.0430
   3550 H           -4.7172    -8.7339    16.8026 H       4   all-H     0.0770
   3551 H           -8.6755   -14.1449   -17.9902 H       4   all-H     0.0842
   3552 H           -9.7584   -16.4671   -18.7611 H       4   all-H     0.0774
   3553 H           -9.7372   -17.6301    17.7599 H       4   all-H     0.0423
   3554 H           -9.0972   -16.9362    16.1722 H       4   all-H     0.0727
   3555 C            1.5576   -14.7878     8.2240 C       2   Sp2-C     0.1455
   3556 O            1.8879   -16.1906     8.7398 O       5   Sp2-O    -0.4935
   3557 C            3.2131   -15.7174     9.2048 C       2   Sp2-C     0.1307
   3558 C            3.4776   -14.3141     9.0145 C       2   Sp2-C    -0.0187
   3559 C            2.4308   -13.6855     8.3164 C       2   Sp2-C    -0.0296
   3560 C            0.5070   -14.3477     7.5584 C       2   Sp2-C     0.1436
   3561 C            4.2768   -16.4759     9.6105 C       1   Sp1-C    -0.0127
   3562 H            4.3382   -13.7196     9.3542 H       4   all-H     0.0560
   3563 H            2.3532   -12.6383     8.0080 H       4   all-H     0.0646
   3564 H            0.4264   -13.3354     7.2310 H       4   all-H     0.1179
   3565 H            5.3016   -16.6489     9.8509 H       4   all-H     0.0675
   3566 C           17.8643     3.2674   -14.2977 C       2   Sp2-C     0.1482
   3567 O          -18.6469     3.0469   -15.4101 O       5   Sp2-O    -0.4601
   3568 C           17.7287     3.4283   -16.4941 C       2   Sp2-C     0.1226
   3569 C           16.4591     3.8543   -15.8676 C       2   Sp2-C    -0.0136
   3570 C           16.5504     3.7813   -14.5141 C       2   Sp2-C    -0.0107
   3571 C           18.2202     3.0004   -12.9389 C       2   Sp2-C    -0.0095
   3572 C           17.9388     3.5959   -17.8340 C       1   Sp1-C    -0.0351
   3573 H           15.6047     4.1144   -16.4687 H       4   all-H     0.0540
   3574 H           15.7260     4.0155   -13.7892 H       4   all-H     0.0638
   3575 H           17.4140     3.2165   -12.2163 H       4   all-H     0.0460
   3576 H           17.5902     3.8560   -18.7957 H       4   all-H     0.0451
   3577 C            4.9756   -12.4176    -7.7951 C       2   Sp2-C     0.1200
   3578 O            5.4663   -10.9579    -8.1378 O       5   Sp2-O    -0.4707
   3579 C            5.8752   -10.5993    -6.8843 C       2   Sp2-C     0.1568
   3580 C            5.9168   -11.5704    -5.8528 C       2   Sp2-C    -0.0057
   3581 C            5.3006   -12.6394    -6.3653 C       2   Sp2-C     0.0091
   3582 C            4.3458   -13.2978    -8.5220 C       1   Sp1-C    -0.0233
   3583 C            6.4231    -9.2899    -6.4272 C       2   Sp2-C    -0.0036
   3584 H            6.2795   -11.4788    -4.8548 H       4   all-H     0.0636
   3585 H            5.0993   -13.5287    -5.7761 H       4   all-H     0.0723
   3586 H            3.8735   -14.1527    -8.9055 H       4   all-H     0.0695
   3587 H            6.6348    -9.0209    -5.3914 H       4   all-H     0.0695
   3588 C           -0.8202   -17.5695    10.7978 C       2   Sp2-C     0.1600
   3589 O           -1.6234   -18.0475    11.8977 O       5   Sp2-O    -0.4427
   3590 C           -0.4090   -18.3941    12.7443 C       2   Sp2-C     0.1087
   3591 C            0.8867   -18.3062    12.2053 C       2   Sp2-C    -0.0467
   3592 C            0.6251   -17.7238    10.9413 C       2   Sp2-C    -0.0304
   3593 C           -1.3498   -17.0570     9.7262 C       2   Sp2-C     0.2011
   3594 C           -0.2122   -18.8465    14.0241 C       1   Sp1-C    -0.0532
   3595 H            1.7765   -18.5992    12.6963 H       4   all-H     0.0342
   3596 H            1.2655   -17.3694    10.1510 H       4   all-H     0.1063
   3597 H           -0.7745   -16.5512     9.0130 H       4   all-H     0.1605
   3598 H           -0.5109    18.9425    15.0345 H       4   all-H     0.0347
   3599 C           -7.3388    -0.2903     9.4013 C       3   Sp3-C     0.0776
   3600 C           -8.3562    -1.2923     8.9381 C       2   Sp2-C    -0.0346
   3601 C           -7.5593    -2.1825     8.4576 C       2   Sp2-C    -0.0158
   3602 C           -6.0869    -1.7377     8.4900 C       3   Sp3-C     0.1224
   3603 C           -4.6803     0.1466     7.4533 C       2   Sp2-C     0.1703
   3604 O           -4.6874     1.2680     8.1887 O       5   Sp2-O    -0.5007
   3605 C           -6.0539     1.6562     8.4052 C       2   Sp2-C     0.1472
   3606 C           -6.9501     0.4819     8.1091 C       3   Sp3-C     0.0282
   3607 C           -6.0195    -0.5519     7.4832 C       3   Sp3-C     0.0440
   3608 C           -6.4756     2.9498     8.6543 C       2   Sp2-C    -0.0037
   3609 C           -8.0154     0.6184    10.5499 C       3   Sp3-C    -0.0130
   3610 C           -5.2353    -2.9931     8.1354 C       3   Sp3-C    -0.0063
   3611 C           -3.5872    -0.4124     6.7500 C       2   Sp2-C    -0.0023
   3612 O           -5.8466    -0.9972     9.7124 O       5   Sp2-O    -0.4623
   3613 C           -9.4524     5.9144    10.2457 C       1   Sp1-C     0.1652
   3614 C           -8.5721     5.8736     9.2105 C       2   Sp2-C    -0.0248
   3615 C           -7.4798     4.8170     9.0844 C       2   Sp2-C    -0.0277
   3616 C           -7.7158     3.5111     8.9150 C       2   Sp2-C     0.1376
   3617 O           -8.9597     2.9189     8.8578 O       6   Sp3-O    -0.4832
   3618 O           -4.7467    -2.1065     5.5160 O       5   Sp2-O    -0.4959
   3619 C           -3.6347    -1.4139     5.8251 C       2   Sp2-C     0.1312
   3620 C           -2.3735    -1.8279     5.2604 C       2   Sp2-C    -0.0327
   3621 C           -2.4923    -2.8846     4.3634 C       2   Sp2-C    -0.0188
   3622 C           -3.9290    -3.0703     4.4894 C       2   Sp2-C     0.0981
   3623 O           -8.5450     0.4790    13.0902 O       5   Sp2-O    -0.4637
   3624 C           -8.3029    -0.7319    14.0250 C       2   Sp2-C     0.0970
   3625 C           -7.8065    -1.8283    13.2091 C       2   Sp2-C    -0.0285
   3626 C           -7.6681    -1.4048    11.8952 C       2   Sp2-C    -0.0097
   3627 C           -8.0855    -0.0876    11.9186 C       2   Sp2-C     0.1349
   3628 C           -5.3255    -4.1211     9.2072 C       2   Sp2-C     0.1511
   3629 C           -6.2136    -5.1475     8.8272 C       2   Sp2-C    -0.0336
   3630 C           -6.2874    -5.9841     9.8365 C       2   Sp2-C    -0.0480
   3631 C           -5.1661    -5.6131    10.7900 C       3   Sp3-C     0.0650
   3632 O           -4.6077    -4.0850    10.2929 O       5   Sp2-O    -0.4585
   3633 C           -8.5682    -0.7840    15.3254 C       2   Sp2-C    -0.0513
   3634 C           -4.2877    -3.9440     3.6914 C       2   Sp2-C    -0.0421
   3635 H           -9.4378    -1.2208     9.0170 H       4   all-H     0.0826
   3636 H           -7.8506    -3.1445     7.9809 H       4   all-H     0.1214
   3637 H           -7.8181     0.7673     7.5352 H       4   all-H     0.0941
   3638 H           -6.3982    -1.0084     6.5175 H       4   all-H     0.1153
   3639 H           -5.5094     3.4923     8.5958 H       4   all-H     0.0580
   3640 H           -7.5713     1.6200    10.6228 H       4   all-H     0.0712
   3641 H           -9.0310     0.8067    10.3702 H       4   all-H     0.0919
   3642 H           -5.5846    -3.2677     7.1353 H       4   all-H     0.0776
   3643 H           -4.2107    -2.7382     7.9404 H       4   all-H     0.0736
   3644 H           -2.6175     0.0125     6.9220 H       4   all-H     0.0426
   3645 H           -8.8008     6.6549     8.5128 H       4   all-H     0.0513
   3646 H           -6.4874     5.1441     8.9048 H       4   all-H     0.0336
   3647 H           -1.4112    -1.3467     5.4385 H       4   all-H     0.0382
   3648 H           -1.7549    -3.4230     3.7882 H       4   all-H     0.0873
   3649 H           -7.5419    -2.7897    13.5578 H       4   all-H     0.0602
   3650 H           -7.2904    -2.0142    11.0785 H       4   all-H     0.0961
   3651 H           -6.7879    -5.1114     7.9330 H       4   all-H     0.0634
   3652 H           -6.9234    -6.8237     9.9455 H       4   all-H     0.0354
   3653 H           -8.5338    -1.6750    15.9130 H       4   all-H     0.0397
   3654 H           -8.9735     0.1235    15.7110 H       4   all-H     0.0649
   3655 H           -3.5933    -4.4922     3.0307 H       4   all-H     0.0808
   3656 H           -5.2882    -4.1908     3.5463 H       4   all-H     0.0323
   3657 C           -9.6263    -7.6546    12.2122 C       3   Sp3-C     0.0940
   3658 C           -9.8334    -8.3607    10.9157 C       2   Sp2-C    -0.0189
   3659 C          -10.6139    -9.3002    11.3010 C       2   Sp2-C    -0.0283
   3660 C          -10.9269    -9.1974    12.8415 C       3   Sp3-C     0.1188
   3661 C           -9.5012   -10.0632    14.7931 C       2   Sp2-C     0.1522
   3662 O           -8.9475    -9.0112    15.5018 O       5   Sp2-O    -0.4943
   3663 C           -8.2686    -8.2099    14.5247 C       2   Sp2-C     0.1320
   3664 C           -8.6458    -8.5107    13.1066 C       3   Sp3-C    -0.0015
   3665 C           -9.5371    -9.7643    13.3353 C       3   Sp3-C     0.0196
   3666 C           -7.3643    -7.2216    14.9103 C       2   Sp2-C     0.0171
   3667 C           -9.0152    -6.2079    11.9369 C       3   Sp3-C    -0.0275
   3668 C          -12.0742   -10.0977    13.2232 C       3   Sp3-C    -0.0039
   3669 C           -9.9859   -11.2617    15.2759 C       2   Sp2-C     0.0114
   3670 O          -10.9415    -7.8437    13.2120 O       5   Sp2-O    -0.5033
   3671 C           -5.4807    -4.6221    13.3558 C       2   Sp2-C     0.2386
   3672 C           -5.5643    -5.7241    12.2628 C       2   Sp2-C     0.0244
   3673 C           -6.1729    -6.8001    12.7664 C       2   Sp2-C    -0.0234
   3674 C           -6.5173    -6.4266    14.1042 C       2   Sp2-C     0.1442
   3675 O           -6.0816    -5.2237    14.6753 O       5   Sp2-O    -0.4539
   3676 O          -10.4635   -12.4858    13.1751 O       5   Sp2-O    -0.4905
   3677 C          -10.4845   -12.3753    14.5265 C       2   Sp2-C     0.1464
   3678 C          -10.9629   -13.4482    15.3020 C       2   Sp2-C    -0.0045
   3679 C          -11.5807   -14.4338    14.5123 C       2   Sp2-C    -0.0271
   3680 C          -11.3071   -13.8794    13.2171 C       2   Sp2-C     0.0959
   3681 O          -10.8405    -5.6525    10.2573 O       5   Sp2-O    -0.4828
   3682 C          -11.3766    -4.1445     9.8503 C       2   Sp2-C     0.1010
   3683 C          -10.8238    -3.2246    10.7969 C       2   Sp2-C    -0.0133
   3684 C          -10.0073    -3.9288    11.6657 C       2   Sp2-C    -0.0260
   3685 C          -10.0211    -5.2184    11.2426 C       2   Sp2-C     0.1442
   3686 C          -12.5872    -9.8908    14.7022 C       2   Sp2-C     0.1726
   3687 C          -11.9354    -8.8888    15.5396 C       2   Sp2-C    -0.0017
   3688 C          -12.1386    -8.7625    16.9366 C       2   Sp2-C    -0.0167
   3689 C          -12.8851    -9.7936    17.3364 C       1   Sp1-C     0.1453
   3690 O          -13.4499   -10.6579    14.9834 O       5   Sp2-O    -0.4642
   3691 C          -12.1795    -3.8699     8.8537 C       2   Sp2-C    -0.0175
   3692 C          -11.7216   -14.7229    12.3308 C       2   Sp2-C    -0.0530
   3693 H           -9.4832    -8.2189     9.9484 H       4   all-H     0.0541
   3694 H          -11.0552   -10.0651    10.6443 H       4   all-H     0.0374
   3695 H           -7.7264    -8.7782    12.5906 H       4   all-H     0.0355
   3696 H           -9.2368   -10.6816    12.8305 H       4   all-H     0.0824
   3697 H           -7.3947    -7.1339    16.0011 H       4   all-H     0.0851
   3698 H           -8.5182    -5.7745    12.7951 H       4   all-H     0.0436
   3699 H           -8.0160    -6.2955    11.4826 H       4   all-H     0.0312
   3700 H          -12.8963   -10.0566    12.4733 H       4   all-H     0.0581
   3701 H          -11.6972   -11.0880    13.0927 H       4   all-H     0.1106
   3702 H          -10.0648   -11.4419    16.3525 H       4   all-H     0.0591
   3703 H           -4.3191    -6.2795    10.5381 H       4   all-H     0.0698
   3704 H           -6.2673    -7.6959    12.1878 H       4   all-H     0.0376
   3705 H          -10.8098   -13.5353    16.3536 H       4   all-H     0.0698
   3706 H          -12.1457   -15.2525    14.7368 H       4   all-H     0.0580
   3707 H          -10.9957    -2.1548    10.8602 H       4   all-H     0.0849
   3708 H           -9.3921    -3.4585    12.4421 H       4   all-H     0.0386
   3709 H          -11.2222    -8.3279    14.9678 H       4   all-H     0.1401
   3710 H          -11.5470    -8.0109    17.5444 H       4   all-H     0.1162
   3711 H          -12.3881    -2.8789     8.5610 H       4   all-H     0.0607
   3712 H          -12.6895    -4.6726     8.2720 H       4   all-H     0.0861
   3713 H          -12.2509   -15.6045    12.6649 H       4   all-H     0.0562
   3714 H          -11.6543   -14.6222    11.2661 H       4   all-H     0.0334
   3715 C            1.1556    -2.9102     7.7476 C       3   Sp3-C     0.1145
   3716 C           -0.1585    -2.1541     7.9064 C       2   Sp2-C    -0.0404
   3717 C           -1.3623    -2.7409     8.3280 C       2   Sp2-C    -0.0397
   3718 C           -1.1958    -4.1202     8.2911 C       2   Sp2-C    -0.0207
   3719 C            0.4260    -6.0755     7.1954 C       2   Sp2-C     0.1479
   3720 O            1.7717    -5.9016     6.8552 O       5   Sp2-O    -0.4987
   3721 C            1.8035    -4.7001     6.1348 C       2   Sp2-C     0.1547
   3722 C            0.6917    -3.8027     6.5875 C       3   Sp3-C     0.0089
   3723 C           -0.3799    -4.7791     7.0939 C       3   Sp3-C    -0.0093
   3724 C            2.7080    -4.3301     5.1995 C       2   Sp2-C     0.0061
   3725 C            2.2470    -1.8486     7.3740 C       3   Sp3-C    -0.0016
   3726 C           -1.9083    -4.9522     9.3353 C       3   Sp3-C    -0.0271
   3727 C           -0.0804    -7.3023     7.6619 C       2   Sp2-C     0.0056
   3728 O            1.6189    -3.7966     8.8450 O       6   Sp3-O    -0.6076
   3729 C            2.3901    -1.2057     3.4146 C       2   Sp2-C     0.1069
   3730 C            3.5071    -1.8808     2.7701 C       2   Sp2-C    -0.0193
   3731 C            3.7092    -3.1153     3.3825 C       2   Sp2-C    -0.0233
   3732 C            2.7088    -3.1473     4.3554 C       2   Sp2-C     0.1264
   3733 O            1.8425    -2.0724     4.5503 O       5   Sp2-O    -0.4890
   3734 O           -2.6382    -6.9642     7.2978 O       6   Sp3-O    -0.4919
   3735 C           -1.4677    -7.5848     7.8155 C       2   Sp2-C     0.1360
   3736 C           -1.5032    -8.6871     8.5859 C       2   Sp2-C    -0.0087
   3737 C           -2.6932    -9.4255     9.0403 C       2   Sp2-C    -0.0320
   3738 C           -3.9680    -8.9817     8.7709 C       1   Sp1-C    -0.0117
   3739 O            4.1556    -0.5339     8.4305 O       5   Sp2-O    -0.4846
   3740 C            4.1506     0.1152     9.9867 C       2   Sp2-C     0.1000
   3741 C            2.8984    -0.1734    10.5601 C       2   Sp2-C    -0.0255
   3742 C            2.0933    -0.9074     9.6164 C       2   Sp2-C    -0.0083
   3743 C            2.9134    -1.0212     8.5193 C       2   Sp2-C     0.1526
   3744 C           -1.1489    -4.9630    10.7650 C       3   Sp3-C     0.0802
   3745 C           -1.8538    -5.4745    11.9684 C       3   Sp3-C     0.0073
   3746 C            0.1853    -5.8346    12.3813 C       3   Sp3-C     0.0129
   3747 C            0.9527    -4.5608    12.1434 C       2   Sp2-C     0.0848
   3748 O            0.1184    -3.7590    10.9183 O       6   Sp3-O    -0.5509
   3749 C            2.0461    -4.1757    12.4865 C       2   Sp2-C    -0.0136
   3750 C            2.0330     0.0142     3.0806 C       2   Sp2-C    -0.0335
   3751 H           -0.2942    -1.1017     7.8515 H       4   all-H     0.0314
   3752 H           -2.1926    -2.2666     8.7843 H       4   all-H     0.0538
   3753 H            0.2649    -3.2285     5.8168 H       4   all-H     0.0731
   3754 H           -1.0948    -5.3443     6.4147 H       4   all-H     0.1284
   3755 H            3.5276    -5.0157     5.0538 H       4   all-H     0.0546
   3756 H            3.0729    -2.3849     6.8617 H       4   all-H     0.0854
   3757 H            1.8360    -1.2428     6.5683 H       4   all-H     0.0815
   3758 H           -2.9061    -4.4919     9.4860 H       4   all-H     0.1150
   3759 H           -2.0752    -5.9683     9.0491 H       4   all-H     0.0883
   3760 H            0.7616    -8.0226     7.9770 H       4   all-H     0.0589
   3761 H            3.9712    -1.4514     1.8997 H       4   all-H     0.0871
   3762 H            4.4514    -3.8406     3.1185 H       4   all-H     0.0645
   3763 H           -0.5666    -9.1693     8.8754 H       4   all-H     0.0574
   3764 H           -2.6182   -10.3256     9.5808 H       4   all-H     0.0502
   3765 H            2.6913    -0.0399    11.5876 H       4   all-H     0.0471
   3766 H            1.1563    -1.3088     9.7886 H       4   all-H     0.0756
   3767 H           -2.8909    -5.8236    12.1401 H       4   all-H     0.0852
   3768 H            0.5405   -11.6524    16.4039 H       4   all-H     0.3014
   3769 H            2.7543    -4.7320    13.1191 H       4   all-H     0.0507
   3770 H            2.3906    -3.2209    12.1440 H       4   all-H     0.1005
   3771 H            2.5802     0.3774     2.2358 H       4   all-H     0.0640
   3772 H            1.1885     0.6003     3.5526 H       4   all-H     0.0603
   3773 C           -1.0052   -10.6834    15.2842 C       2   Sp2-C     0.0656
   3774 C           -2.0074   -11.2574    16.2555 C       2   Sp2-C    -0.0386
   3775 C           -2.1990   -12.5528    16.4337 C       2   Sp2-C    -0.0146
   3776 C           -1.7099   -13.1977    15.2456 C       2   Sp2-C     0.0098
   3777 C           -1.4179   -13.3672    12.7725 C       2   Sp2-C     0.1446
   3778 O           -0.1601   -13.0324    12.4214 O       5   Sp2-O    -0.4905
   3779 C           -0.0247   -11.6487    12.8779 C       2   Sp2-C     0.1395
   3780 C           -1.1474   -11.2054    13.8500 C       3   Sp3-C    -0.0017
   3781 C           -1.9308   -12.5760    13.9201 C       3   Sp3-C     0.0013
   3782 C            1.0018   -10.8066    12.4895 C       2   Sp2-C    -0.0003
   3783 C           -1.2016    -9.2086    15.3362 C       3   Sp3-C     0.0161
   3784 C           -1.2866   -14.6316    15.5103 C       3   Sp3-C    -0.0156
   3785 C           -2.1908   -14.3727    12.1639 C       2   Sp2-C     0.0101
   3786 O            0.6900   -10.8072    15.7816 O       6   Sp3-O    -0.5512
   3787 C            0.6654    -7.2277    12.4618 C       2   Sp2-C     0.1242
   3788 C            2.0640    -7.4632    12.1188 C       2   Sp2-C    -0.0401
   3789 C            2.2839    -8.7983    12.0196 C       2   Sp2-C    -0.0492
   3790 C            1.0742    -9.3799    12.4131 C       2   Sp2-C     0.1103
   3791 O           -0.0313    -8.4629    12.6887 O       5   Sp2-O    -0.4837
   3792 O           -4.1517   -14.1158    13.7244 O       5   Sp2-O    -0.4791
   3793 C           -3.5175   -14.6452    12.6311 C       2   Sp2-C     0.1319
   3794 C           -4.2720   -15.6917    12.0163 C       2   Sp2-C     0.0047
   3795 C           -5.5156   -15.8978    12.5803 C       2   Sp2-C    -0.0180
   3796 C           -5.4617   -15.0548    13.7355 C       2   Sp2-C     0.1195
   3797 O           -0.3163    -7.4991    16.6783 O       5   Sp2-O    -0.4891
   3798 C            3.1733    -9.6724    17.6467 C       1   Sp1-C     0.1591
   3799 C            2.0851    -8.9443    17.2462 C       2   Sp2-C     0.0018
   3800 C            0.7274    -9.6239    16.9905 C       3   Sp3-C     0.1032
   3801 C           -0.2153    -8.6181    16.3996 C       2   Sp2-C     0.2114
   3802 C           -0.0074   -14.8079    16.4161 C       2   Sp2-C     0.1584
   3803 C            0.4413   -16.1032    16.6336 C       2   Sp2-C    -0.0119
   3804 C            1.3472   -15.9924    17.6498 C       2   Sp2-C    -0.0119
   3805 C            1.5204   -14.5664    17.9653 C       2   Sp2-C     0.0963
   3806 O            0.4479   -13.7606    17.0805 O       5   Sp2-O    -0.4789
   3807 C            2.3903   -14.0808    18.7308 C       2   Sp2-C    -0.0378
   3808 C           -0.8218    -6.1612    11.4716 C       3   Sp3-C     0.0146
   3809 H           -2.4253   -10.6886    17.0428 H       4   all-H     0.0495
   3810 H           -2.6134   -13.0648    17.3193 H       4   all-H     0.1267
   3811 H           -1.4938   -10.4877    13.0342 H       4   all-H     0.0629
   3812 H           -2.9728   -12.3439    13.8621 H       4   all-H     0.0817
   3813 H            1.8069   -11.4352    12.2124 H       4   all-H     0.0559
   3814 H           -0.8471    -8.7470    14.4120 H       4   all-H     0.1410
   3815 H           -2.2222    -8.7920    15.4795 H       4   all-H     0.0987
   3816 H           -2.0859   -15.2729    15.9077 H       4   all-H     0.0572
   3817 H           -1.1799   -15.1270    14.5136 H       4   all-H     0.0644
   3818 H           -1.7826   -14.8363    11.2706 H       4   all-H     0.0951
   3819 H            2.8926    -6.7879    11.9052 H       4   all-H     0.0379
   3820 H            3.1943    -9.3467    11.8947 H       4   all-H     0.0271
   3821 H           -3.9066   -16.1381    11.1236 H       4   all-H     0.1231
   3822 H           -6.2413   -16.6429    12.3360 H       4   all-H     0.0678
   3823 H            2.2430    -7.8550    17.2991 H       4   all-H     0.0794
   3824 H            0.3718   -10.0403    17.9075 H       4   all-H     0.1078
   3825 H            0.0627   -16.9943    16.2367 H       4   all-H     0.0521
   3826 H            1.9137   -16.7821    18.1301 H       4   all-H     0.0610
   3827 H            3.1367   -14.8001    19.2012 H       4   all-H     0.0539
   3828 H            2.5272   -13.0393    18.7798 H       4   all-H     0.0652
   3829 H            1.5008    -4.7595     8.4924 H       4   all-H     0.3016
   3830 H            0.7288    -3.9022     9.9947 H       4   all-H     0.3508
   3831 C          -15.7958     1.3438    12.6941 C       2   Sp2-C     0.2077
   3832 C          -16.5915     0.1515    13.0300 C       2   Sp2-C     0.0209
   3833 C          -16.2094    -1.1683    12.8925 C       2   Sp2-C    -0.0130
   3834 C          -15.1291    -1.6749    12.1990 C       2   Sp2-C     0.1755
   3835 C          -15.2020    -3.1565    12.1516 C       3   Sp3-C     0.0055
   3836 O          -14.1038    -1.0613    11.6383 O       6   Sp3-O    -0.4965
   3837 O          -16.3788     2.2427    12.1991 O       5   Sp2-O    -0.5005
   3838 C          -13.9737    -3.8017    12.8060 C       2   Sp2-C     0.1556
   3839 C          -13.5710    -5.0182    12.2491 C       2   Sp2-C    -0.0223
   3840 C          -12.5641    -5.4529    13.0465 C       2   Sp2-C    -0.0117
   3841 C          -12.3061    -4.4537    14.0956 C       2   Sp2-C     0.0922
   3842 O          -13.3655    -3.2557    13.8792 O       5   Sp2-O    -0.4518
   3843 C          -11.3452    -4.5774    14.9368 C       2   Sp2-C    -0.0435
   3844 C          -14.2700     1.3886    12.8262 C       3   Sp3-C     0.0162
   3845 C          -12.6134    -0.5483    16.5680 C       2   Sp2-C     0.1826
   3846 C          -12.0798    -0.7279    15.2660 C       2   Sp2-C    -0.0010
   3847 C          -12.7666    -0.2801    14.1081 C       2   Sp2-C     0.0161
   3848 C          -13.8760     0.6521    14.1455 C       2   Sp2-C     0.1843
   3849 O          -14.4837     0.9548    15.1165 O       5   Sp2-O    -0.4867
   3850 H          -17.5833     0.2929    13.5191 H       4   all-H     0.1323
   3851 H          -17.0040    -1.8461    13.3368 H       4   all-H     0.0972
   3852 H          -16.1734    -3.5848    12.5706 H       4   all-H     0.0700
   3853 H          -15.3291    -3.4618    11.1186 H       4   all-H     0.0919
   3854 H          -13.9852    -5.5427    11.3783 H       4   all-H     0.0516
   3855 H          -12.0055    -6.4319    12.9569 H       4   all-H     0.1343
   3856 H          -10.6812    -5.4135    14.8265 H       4   all-H     0.0558
   3857 H          -11.0629    -3.7813    15.6491 H       4   all-H     0.0592
   3858 H          -13.7173     0.9829    12.0056 H       4   all-H     0.0822
   3859 H          -13.7251     2.3594    12.7756 H       4   all-H     0.0348
   3860 H          -11.3465    -1.4887    15.1686 H       4   all-H     0.0688
   3861 H          -12.4216    -0.5794    13.1362 H       4   all-H     0.1014
   3862 C          -14.9474     3.1782    -2.2811 C       2   Sp2-C     0.1942
   3863 C          -13.9753     2.4906    -3.1962 C       2   Sp2-C     0.0016
   3864 C          -12.8046     2.7423    -3.7275 C       2   Sp2-C    -0.0227
   3865 C          -12.1415     4.0645    -3.6220 C       2   Sp2-C     0.1780
   3866 C          -10.7767     4.0610    -4.4497 C       3   Sp3-C    -0.0074
   3867 O          -12.3787     5.0473    -3.0492 O       5   Sp2-O    -0.4803
   3868 O          -16.0096     2.7026    -2.0933 O       5   Sp2-O    -0.4770
   3869 C          -11.0263     3.9160    -5.9578 C       2   Sp2-C     0.1389
   3870 C          -12.2666     3.8325    -6.4526 C       2   Sp2-C    -0.0089
   3871 C          -12.1110     3.6350    -7.8368 C       2   Sp2-C    -0.0008
   3872 C          -10.7256     3.5849    -8.2730 C       2   Sp2-C     0.0966
   3873 O           -9.9711     3.7489    -6.7781 O       5   Sp2-O    -0.4651
   3874 C          -10.2728     3.4039    -9.3799 C       2   Sp2-C    -0.0311
   3875 C          -14.6099     4.4725    -1.5940 C       3   Sp3-C     0.0462
   3876 C          -14.1623     3.7692     1.2498 C       1   Sp1-C    -0.0327
   3877 C          -15.5681     4.1155     1.2625 C       2   Sp2-C    -0.0645
   3878 C          -16.3537     4.7946     0.3522 C       2   Sp2-C     0.0093
   3879 C          -15.9544     5.0775    -0.9962 C       2   Sp2-C     0.2167
   3880 O          -16.5195     5.6977    -1.8187 O       5   Sp2-O    -0.4710
   3881 H          -14.4912     1.5322    -3.2094 H       4   all-H     0.0990
   3882 H          -12.3209     1.9516    -4.2943 H       4   all-H     0.0600
   3883 H          -10.2174     4.9288    -4.0581 H       4   all-H     0.0744
   3884 H          -10.0573     3.3627    -3.9993 H       4   all-H     0.0460
   3885 H          -13.2151     3.9877    -5.9054 H       4   all-H     0.0559
   3886 H          -13.0488     3.6022    -8.4065 H       4   all-H     0.0628
   3887 H          -10.8471     3.2835   -10.2731 H       4   all-H     0.0585
   3888 H           -9.2174     3.3200    -9.6617 H       4   all-H     0.0601
   3889 H          -13.9585     4.2958    -0.7464 H       4   all-H     0.0836
   3890 H          -13.9998     5.0987    -2.2396 H       4   all-H     0.1415
   3891 H          -15.9507     3.9137     2.3044 H       4   all-H     0.0411
   3892 H          -17.2905     5.2339     0.6707 H       4   all-H     0.1271
   3893 C          -12.9718     6.6941    15.0433 C       2   Sp2-C     0.1515
   3894 O          -11.8521     7.2726    14.4219 O       5   Sp2-O    -0.4859
   3895 C          -11.5457     8.2283    15.5872 C       2   Sp2-C     0.0960
   3896 C          -12.3735     8.1783    16.7141 C       2   Sp2-C    -0.0438
   3897 C          -13.3284     7.2358    16.3132 C       2   Sp2-C     0.0040
   3898 C          -13.7518     5.7178    14.4445 C       2   Sp2-C     0.0172
   3899 C          -10.0809    10.1115    16.2761 C       2   Sp2-C     0.1298
   3900 O           -8.9121    10.8078    16.1782 O       5   Sp2-O    -0.4627
   3901 C           -9.2448    11.9363    17.2780 C       2   Sp2-C     0.0905
   3902 C          -10.5632    11.8155    17.7939 C       2   Sp2-C    -0.0339
   3903 C          -11.0870    10.7060    17.1261 C       2   Sp2-C    -0.0280
   3904 C          -10.4346     9.0320    15.4209 C       2   Sp2-C     0.0164
   3905 C          -14.8952     5.1004    15.0504 C       2   Sp2-C     0.1274
   3906 C          -15.4791     3.9935    14.3766 C       2   Sp2-C    -0.0110
   3907 C          -16.5066     3.6720    15.2801 C       2   Sp2-C    -0.0083
   3908 C          -16.4450     4.4676    16.4522 C       2   Sp2-C     0.1137
   3909 O          -15.3142     5.4827    16.3399 O       5   Sp2-O    -0.4709
   3910 C          -17.3787     4.2723    17.4220 C       2   Sp2-C    -0.0537
   3911 H          -12.4108     8.7120    17.6844 H       4   all-H     0.0435
   3912 H          -14.1386     6.9172    16.9916 H       4   all-H     0.1212
   3913 H          -13.5617     5.1574    13.5247 H       4   all-H     0.0573
   3914 H          -11.0392    12.4596    18.4991 H       4   all-H     0.0652
   3915 H          -12.0665    10.3980    17.2180 H       4   all-H     0.0765
   3916 H           -9.8361     8.8008    14.5591 H       4   all-H     0.1087
   3917 H          -15.1337     3.5504    13.5122 H       4   all-H     0.0765
   3918 H          -17.1697     2.8518    15.1222 H       4   all-H     0.0698
   3919 H          -18.1823     3.5637    17.2247 H       4   all-H     0.0288
   3920 H          -17.3939     4.8826    18.2847 H       4   all-H     0.0524
   3921 C          -15.9545    15.3556   -18.9201 C       2   Sp2-C     0.1603
   3922 O          -15.5901    16.6034    19.2577 O       5   Sp2-O    -0.4665
   3923 C          -14.1854    16.0928    18.6939 C       2   Sp2-C     0.0949
   3924 C          -13.9347    14.7256    18.8053 C       2   Sp2-C    -0.0162
   3925 C          -15.0919    14.2884   -19.1558 C       2   Sp2-C     0.0074
   3926 C          -17.1861    15.1545   -18.2623 C       2   Sp2-C     0.0111
   3927 C          -11.9926    16.8435    17.5817 C       2   Sp2-C     0.1246
   3928 O          -11.4372    17.4494    16.5046 O       6   Sp3-O    -0.5796
   3929 C           -9.3628    15.7746    16.8816 C       1   Sp1-C     0.1356
   3930 C          -10.1161    15.3724    17.8787 C       2   Sp2-C    -0.0202
   3931 C          -11.4802    15.9391    18.3374 C       2   Sp2-C    -0.0220
   3932 C          -13.3637    17.0402    18.1074 C       2   Sp2-C    -0.0146
   3933 C          -17.7070    13.8269   -18.0500 C       2   Sp2-C     0.1157
   3934 C           18.5349    14.0386   -17.2904 C       2   Sp2-C    -0.0255
   3935 C           17.9841    12.6526   -17.2941 C       2   Sp2-C    -0.0311
   3936 C          -18.4901    11.8303   -18.0520 C       2   Sp2-C     0.0935
   3937 O          -17.2882    12.5470   -18.5747 O       5   Sp2-O    -0.4932
   3938 C           18.4054    10.6509   -18.0921 C       2   Sp2-C    -0.0378
   3939 H          -13.0312    14.1270    18.4790 H       4   all-H     0.0674
   3940 H          -15.2472    13.2466   -18.9059 H       4   all-H     0.1117
   3941 H          -17.7249    16.0681   -18.0054 H       4   all-H     0.0828
   3942 H           -9.6240    14.5409    18.4608 H       4   all-H     0.0590
   3943 H          -11.9046    15.5428    19.2816 H       4   all-H     0.1131
   3944 H          -13.7621    18.0023    18.1097 H       4   all-H     0.0663
   3945 H           18.1324    14.9608   -16.9911 H       4   all-H     0.0574
   3946 H           16.9843    12.4072   -16.8148 H       4   all-H     0.0666
   3947 H           17.4913    10.3613   -17.6231 H       4   all-H     0.0647
   3948 H          -18.3494     9.8918   -18.5594 H       4   all-H     0.0840
   3949 C           15.7888     9.6355     2.7353 C       2   Sp2-C     0.0971
   3950 O           16.9147     9.8193     1.6247 O       5   Sp2-O    -0.4740
   3951 C           17.7014    10.6793     2.3757 C       2   Sp2-C     0.1424
   3952 C           17.3816    11.0074     3.7171 C       2   Sp2-C    -0.0144
   3953 C           16.1507    10.4314     3.8756 C       2   Sp2-C    -0.0249
   3954 C           14.6894     8.8898     2.7894 C       1   Sp1-C    -0.0217
   3955 C          -18.3668    11.2608     1.9056 C       2   Sp2-C    -0.0022
   3956 H           17.9833    11.5977     4.3924 H       4   all-H     0.1190
   3957 H           15.5412    10.4511     4.7336 H       4   all-H     0.0734
   3958 H           13.7719     8.4425     3.1987 H       4   all-H     0.0675
   3959 H          -17.7769    12.0427     2.4113 H       4   all-H     0.0756
   3960 C           18.3221   -17.7691    15.2248 C       3   Sp3-C     0.0645
   3961 C           17.2890   -18.5712    15.9304 C       2   Sp2-C    -0.0546
   3962 C           17.4521    18.4126    15.3425 C       2   Sp2-C    -0.0242
   3963 C           18.4485    18.5260    14.1409 C       3   Sp3-C     0.1452
   3964 C           18.4603   -18.5095    11.8765 C       2   Sp2-C     0.1832
   3965 O          -18.1608   -17.3918    11.8843 O       5   Sp2-O    -0.4712
   3966 C           18.5208   -16.5393    12.8844 C       2   Sp2-C     0.1415
   3967 C           17.6742   -17.2965    13.8852 C       3   Sp3-C    -0.0069
   3968 C           17.6776   -18.6959    13.1392 C       3   Sp3-C     0.0271
   3969 C           18.5006   -15.2171    12.8545 C       2   Sp2-C     0.0266
   3970 C          -18.4890   -16.5939    16.1358 C       3   Sp3-C    -0.0243
   3971 C          -18.5057    17.0321    13.6660 C       3   Sp3-C    -0.0042
   3972 C           18.3104    18.7528    10.7453 C       2   Sp2-C     0.0326
   3973 O          -17.8199   -18.7706    14.4698 O       5   Sp2-O    -0.4723
   3974 C           16.8154   -12.4092    14.3825 C       2   Sp2-C     0.0965
   3975 C           16.1579   -13.4510    15.0641 C       2   Sp2-C    -0.0307
   3976 C           16.8218   -14.6183    14.6056 C       2   Sp2-C    -0.0401
   3977 C           17.8110   -14.2634    13.6646 C       2   Sp2-C     0.1357
   3978 O           18.0147   -12.9224    13.4530 O       5   Sp2-O    -0.4554
   3979 O           16.5466    17.1310    11.7103 O       5   Sp2-O    -0.5064
   3980 C           17.4230    17.6250    10.7568 C       2   Sp2-C     0.1357
   3981 C           17.7363    17.0586     9.4962 C       2   Sp2-C    -0.0255
   3982 C           16.7876    16.0370     9.4435 C       2   Sp2-C    -0.0343
   3983 C           16.0593    15.9631    10.7100 C       2   Sp2-C     0.0877
   3984 O          -16.9676   -16.3448    18.1248 O       5   Sp2-O    -0.4658
   3985 C          -16.2528   -17.5355    18.9896 C       2   Sp2-C     0.0914
   3986 C          -16.6827   -18.8001    18.3871 C       2   Sp2-C    -0.0215
   3987 C          -17.3352   -18.5156    17.1915 C       2   Sp2-C    -0.0025
   3988 C          -17.4802   -17.1433    17.1971 C       2   Sp2-C     0.1487
   3989 C          -18.4715    16.0754    14.8682 C       2   Sp2-C     0.1441
   3990 C           18.0420    14.9755    14.6229 C       2   Sp2-C    -0.0299
   3991 C           17.9910    14.2568    15.7997 C       2   Sp2-C    -0.0403
   3992 C          -18.6123    14.9734    16.9004 C       3   Sp3-C     0.0624
   3993 O          -17.7987    16.2044    16.0032 O       5   Sp2-O    -0.4490
   3994 C          -15.4157   -17.3114   -18.6557 C       2   Sp2-C    -0.0154
   3995 C           15.1569    15.1696    10.9281 C       2   Sp2-C    -0.0404
   3996 H           16.6650   -18.2965    16.7608 H       4   all-H     0.0406
   3997 H           17.0027    17.5036    15.6562 H       4   all-H     0.0590
   3998 H           16.7017   -16.8185    14.0664 H       4   all-H     0.0256
   3999 H           16.7195    18.9785    12.9192 H       4   all-H     0.0632
   4000 H          -18.3383   -14.7853    11.9735 H       4   all-H     0.1000
   4001 H          -18.0732   -15.6812    15.5948 H       4   all-H     0.1070
   4002 H           18.0519   -16.2068    16.7986 H       4   all-H     0.0341
   4003 H           17.9171    16.9049    12.9783 H       4   all-H     0.0957
   4004 H          -17.5925    16.9404    13.0369 H       4   all-H     0.1060
   4005 H          -18.3999    18.9681     9.8980 H       4   all-H     0.0860
   4006 H           15.3293   -13.3037    15.7026 H       4   all-H     0.1012
   4007 H           16.6066   -15.5776    14.9423 H       4   all-H     0.0230
   4008 H           18.3755    17.3913     8.6765 H       4   all-H     0.0567
   4009 H           16.6271    15.3523     8.6013 H       4   all-H     0.0467
   4010 H          -16.4535    18.3345    18.6925 H       4   all-H     0.1184
   4011 H          -17.7528    18.8713    16.4513 H       4   all-H     0.1297
   4012 H           17.4937    14.8052    13.7224 H       4   all-H     0.0445
   4013 H           17.4118    13.3292    15.8793 H       4   all-H     0.0419
   4014 H          -14.9682   -18.1602   -18.1123 H       4   all-H     0.0601
   4015 H          -15.0762   -16.3167   -18.2939 H       4   all-H     0.0990
   4016 H           14.8830    14.3449    10.2595 H       4   all-H     0.0458
   4017 H           14.6424    15.2270    11.8444 H       4   all-H     0.0661
   4018 C           13.9182    13.0493    18.8336 C       3   Sp3-C     0.0595
   4019 C           13.8779    11.8097    18.0435 C       2   Sp2-C    -0.0235
   4020 C           13.2618    11.0233    18.8881 C       2   Sp2-C    -0.0160
   4021 C           12.9598    11.5854   -18.4082 C       3   Sp3-C     0.1167
   4022 C           14.4168    12.2357   -16.4531 C       2   Sp2-C     0.1465
   4023 O           14.6567    13.6027   -16.3897 O       5   Sp2-O    -0.4840
   4024 C           15.1284    14.0029   -17.6702 C       2   Sp2-C     0.1335
   4025 C           15.0840    12.8987   -18.7200 C       3   Sp3-C    -0.0132
   4026 C           14.4882    11.6839   -17.8406 C       3   Sp3-C     0.0141
   4027 C           15.5673    15.2704   -17.8670 C       2   Sp2-C     0.0134
   4028 C           14.0165    14.3373    17.9644 C       3   Sp3-C    -0.0230
   4029 C           12.1966    10.6491   -17.5276 C       3   Sp3-C    -0.0084
   4030 C           14.2312    11.4521   -15.3339 C       2   Sp2-C     0.0120
   4031 O           12.6337    12.9125   -18.6199 O       5   Sp2-O    -0.4918
   4032 C           17.4474    16.9588    18.1319 C       2   Sp2-C     0.1270
   4033 C           17.8020    15.5896    17.8704 C       2   Sp2-C     0.0081
   4034 C           17.0785    14.8798    18.8370 C       2   Sp2-C    -0.0426
   4035 C           16.3127    15.7816   -18.9653 C       2   Sp2-C     0.1252
   4036 O           16.4159    17.1383   -19.2441 O       5   Sp2-O    -0.4489
   4037 O           14.3049     9.2054   -16.3231 O       5   Sp2-O    -0.4899
   4038 C           14.1746    10.0389   -15.2374 C       2   Sp2-C     0.1450
   4039 C           14.1237     9.4139   -13.9621 C       2   Sp2-C     0.0068
   4040 C           14.2347     8.0329   -14.0332 C       2   Sp2-C    -0.0245
   4041 C           14.2490     7.8982   -15.4831 C       2   Sp2-C     0.1098
   4042 O           12.4778    15.6869    16.4778 O       5   Sp2-O    -0.4594
   4043 C           10.8591    15.5805    16.2976 C       2   Sp2-C     0.0837
   4044 C           10.4479    14.4334    17.1083 C       2   Sp2-C    -0.0205
   4045 C           11.5529    13.9193    17.7563 C       2   Sp2-C     0.0115
   4046 C           12.6149    14.6748    17.3788 C       2   Sp2-C     0.1501
   4047 C           11.4728    11.2995   -16.2644 C       2   Sp2-C     0.1828
   4048 C           11.6514    12.7072   -16.1722 C       2   Sp2-C     0.0129
   4049 C           10.8421    13.5606   -15.3081 C       2   Sp2-C    -0.0279
   4050 C            9.8789    12.9455   -14.5777 C       2   Sp2-C     0.1183
   4051 O           10.7224    10.6545   -15.5825 O       5   Sp2-O    -0.4823
   4052 C           10.1417    16.2637    15.5995 C       2   Sp2-C    -0.0518
   4053 C           14.2115     6.6835   -15.7746 C       2   Sp2-C    -0.0421
   4054 H           14.3303    11.5837    17.0929 H       4   all-H     0.0956
   4055 H           13.0569     9.9766    18.7378 H       4   all-H     0.0508
   4056 H           16.0665    12.7510   -19.1605 H       4   all-H     0.0206
   4057 H           14.9558    10.6677   -17.9318 H       4   all-H     0.0904
   4058 H           15.2682    15.9691   -17.1135 H       4   all-H     0.1113
   4059 H           14.4234    15.2051    18.4844 H       4   all-H     0.0709
   4060 H           14.8113    14.3443    17.1904 H       4   all-H     0.0499
   4061 H           11.5998    10.0004   -18.1300 H       4   all-H     0.0503
   4062 H           12.8228     9.9540   -17.0073 H       4   all-H     0.1228
   4063 H           14.0672    11.9805   -14.4225 H       4   all-H     0.0625
   4064 H          -18.0219    14.1732    17.3535 H       4   all-H     0.0674
   4065 H           17.1667    13.8358    18.9806 H       4   all-H     0.0251
   4066 H           14.1143    10.0582   -13.0521 H       4   all-H     0.1138
   4067 H           14.1637     7.3094   -13.2780 H       4   all-H     0.0487
   4068 H            9.4818    14.0410    17.3770 H       4   all-H     0.0683
   4069 H           11.6179    13.1124    18.5395 H       4   all-H     0.1392
   4070 H           12.3846    13.2054   -16.8117 H       4   all-H     0.1501
   4071 H           10.7597    14.6330   -15.4669 H       4   all-H     0.0531
   4072 H            9.0586    16.1886    15.6280 H       4   all-H     0.0300
   4073 H           10.6702    17.0886    15.1148 H       4   all-H     0.0656
   4074 H           14.1119     5.8805   -15.0102 H       4   all-H     0.0916
   4075 H           14.2681     6.3449   -16.7825 H       4   all-H     0.0451
   4076 C          -14.2090   -17.8162    14.8536 C       3   Sp3-C     0.1122
   4077 C          -14.7170   -18.9348    15.7708 C       2   Sp2-C    -0.0199
   4078 C          -15.0247    17.9661    15.2102 C       2   Sp2-C    -0.0043
   4079 C          -15.0338    17.9224    13.7675 C       2   Sp2-C     0.0002
   4080 C          -14.6796   -18.8195    11.6600 C       2   Sp2-C     0.1639
   4081 O          -14.0850   -17.6323    11.5802 O       5   Sp2-O    -0.5192
   4082 C          -14.7338   -16.8213    12.6201 C       2   Sp2-C     0.1360
   4083 C          -15.3409   -17.6564    13.7266 C       3   Sp3-C     0.0325
   4084 C          -15.4898   -19.0312    12.9260 C       3   Sp3-C     0.0310
   4085 C          -14.9455   -15.4688    12.6535 C       2   Sp2-C    -0.0084
   4086 C          -14.1464   -16.5658    15.6916 C       3   Sp3-C     0.0134
   4087 C          -14.8103    16.6173    13.4826 C       2   Sp2-C    -0.0145
   4088 C          -14.5134    18.2807    10.7066 C       2   Sp2-C    -0.0037
   4089 O          -12.9084   -17.9277    14.2107 O       6   Sp3-O    -0.5884
   4090 C          -16.7627   -13.8866    15.2281 C       2   Sp2-C     0.1337
   4091 C          -16.3772   -12.7530    14.3725 C       2   Sp2-C     0.0074
   4092 C          -15.6204   -13.2390    13.2935 C       2   Sp2-C    -0.0166
   4093 C          -15.6443   -14.6231    13.5468 C       2   Sp2-C     0.1148
   4094 O          -16.3303   -15.1681    14.7216 O       5   Sp2-O    -0.5077
   4095 O          -16.6960    17.0177    11.2091 O       6   Sp3-O    -0.5982
   4096 C          -15.4292    17.1505    10.7133 C       2   Sp2-C     0.1305
   4097 C          -14.7309    16.1916    10.0645 C       2   Sp2-C    -0.0407
   4098 C          -15.2316    14.8099     9.8965 C       2   Sp2-C    -0.0518
   4099 C          -16.4822    14.3669    10.3450 C       1   Sp1-C    -0.0280
   4100 O          -13.5015   -15.9885    17.8894 O       5   Sp2-O    -0.4929
   4101 C          -12.0712   -17.6961   -19.1320 C       2   Sp2-C     0.1463
   4102 C          -11.8131   -18.2801    18.2575 C       2   Sp2-C    -0.0148
   4103 C          -12.4821   -17.9134    17.0541 C       2   Sp2-C     0.0021
   4104 C          -13.3044   -16.7856    17.0158 C       2   Sp2-C     0.1726
   4105 C          -14.0528    15.7582    14.3913 C       3   Sp3-C     0.0682
   4106 C          -14.7364    15.0627    15.4318 C       2   Sp2-C    -0.0138
   4107 C          -13.2506    13.6350    14.8816 C       2   Sp2-C     0.0043
   4108 C          -11.9947    14.5235    14.9075 C       2   Sp2-C     0.0917
   4109 O          -12.2803    15.9954    14.5570 O       5   Sp2-O    -0.5407
   4110 C          -10.8555    14.0920    14.9732 C       2   Sp2-C    -0.0284
   4111 C          -17.3810   -13.3912    16.1844 C       2   Sp2-C    -0.0212
   4112 H          -14.7736   -18.7968    16.8378 H       4   all-H     0.0476
   4113 H          -15.3568    17.0411    15.7741 H       4   all-H     0.0965
   4114 H          -16.2280   -17.3196    14.1776 H       4   all-H     0.1413
   4115 H          -16.5174    18.8368    12.7706 H       4   all-H     0.1437
   4116 H          -14.4759   -15.2113    11.6853 H       4   all-H     0.0495
   4117 H          -13.9755   -15.6743    15.1006 H       4   all-H     0.0694
   4118 H          -15.1506   -16.2959    16.0923 H       4   all-H     0.1206
   4119 H          -17.0410    16.1466    11.0063 H       4   all-H     0.2651
   4120 H          -14.9951    16.2115    12.5249 H       4   all-H     0.0782
   4121 H          -13.7547    18.5215    10.0153 H       4   all-H     0.0583
   4122 H          -16.5222   -11.6750    14.5254 H       4   all-H     0.0695
   4123 H          -15.2680   -12.7705    12.4007 H       4   all-H     0.0610
   4124 H          -13.7486    16.3009     9.6065 H       4   all-H     0.0437
   4125 H          -14.7412    13.9713     9.4210 H       4   all-H     0.0545
   4126 H          -11.3054    18.8790    18.4693 H       4   all-H     0.0762
   4127 H          -12.3405   -18.3716    16.0962 H       4   all-H     0.1341
   4128 H          -14.6238    15.0087    16.5358 H       4   all-H     0.0645
   4129 H          -17.1437     8.4112    16.7387 H       4   all-H     0.3209
   4130 H          -10.6222    13.0532    14.8995 H       4   all-H     0.0583
   4131 H          -10.0242    14.8277    14.9599 H       4   all-H     0.0997
   4132 H          -17.5068   -12.3796    16.4040 H       4   all-H     0.0596
   4133 H          -17.7357   -13.9986    17.0211 H       4   all-H     0.0786
   4134 C          -16.8564    10.3105    17.0139 C       3   Sp3-C     0.1224
   4135 C          -17.9178    11.2329    17.5646 C       2   Sp2-C    -0.0299
   4136 C           18.0841    10.9747    17.4579 C       2   Sp2-C    -0.0442
   4137 C           18.0255     9.8597    16.5509 C       2   Sp2-C     0.0062
   4138 C           18.6156     8.5702    14.4975 C       2   Sp2-C     0.1366
   4139 O          -17.4196     8.0179    14.5530 O       5   Sp2-O    -0.5060
   4140 C          -16.5464     9.0692    14.7380 C       2   Sp2-C     0.1595
   4141 C          -17.1721    10.2532    15.4544 C       3   Sp3-C     0.0074
   4142 C           18.6457     9.8855    15.1966 C       3   Sp3-C     0.0051
   4143 C          -15.2585     9.1231    14.2261 C       2   Sp2-C     0.0158
   4144 C          -15.4123    10.9845    17.1312 C       3   Sp3-C     0.0055
   4145 C           16.9464     8.8386    16.8359 C       3   Sp3-C    -0.0031
   4146 C           17.5303     8.1355    13.8281 C       2   Sp2-C    -0.0112
   4147 O          -16.8841     8.9878    17.4841 O       6   Sp3-O    -0.5777
   4148 C          -13.5760    12.2969    14.4564 C       2   Sp2-C     0.1089
   4149 C          -12.5606    11.3981    14.0261 C       2   Sp2-C    -0.0270
   4150 C          -13.0702    10.1288    13.8683 C       2   Sp2-C    -0.0234
   4151 C          -14.4441    10.3165    14.1991 C       2   Sp2-C     0.1186
   4152 O          -14.9405    11.5861    14.5467 O       5   Sp2-O    -0.4902
   4153 O           15.9670     9.9280    14.5552 O       5   Sp2-O    -0.4671
   4154 C           16.2531     8.8201    13.7506 C       2   Sp2-C     0.1148
   4155 C           15.3234     8.1527    12.9032 C       2   Sp2-C    -0.0536
   4156 C           14.1646     8.8489    13.0464 C       2   Sp2-C    -0.0320
   4157 C           14.3849    10.0017    14.0721 C       2   Sp2-C     0.2254
   4158 O          -13.5208    11.2839    18.6716 O       5   Sp2-O    -0.4848
   4159 C          -13.1878    10.4825   -18.4665 C       2   Sp2-C     0.0831
   4160 C          -14.3108     9.7902   -18.0333 C       2   Sp2-C    -0.0081
   4161 C          -15.1908     9.9650   -19.1240 C       2   Sp2-C     0.0240
   4162 C          -14.7008    10.7513    18.4779 C       2   Sp2-C     0.1648
   4163 C           17.2409     8.0465    18.1531 C       2   Sp2-C     0.1483
   4164 C           18.1181     6.9945    18.0503 C       2   Sp2-C    -0.0111
   4165 C           18.2856     6.5279   -19.2467 C       2   Sp2-C    -0.0277
   4166 C           17.4240     7.3325   -18.4069 C       2   Sp2-C     0.0894
   4167 O           16.6346     8.4365    19.3007 O       5   Sp2-O    -0.4615
   4168 C           17.2171     7.1184   -17.2032 C       2   Sp2-C    -0.0410
   4169 C          -14.3844    14.2685    14.3179 C       2   Sp2-C     0.0140
   4170 H          -17.6162    12.0050    18.3110 H       4   all-H     0.1092
   4171 H           17.2414    11.5023    17.9606 H       4   all-H     0.0434
   4172 H          -16.8895    11.2194    14.9674 H       4   all-H     0.0936
   4173 H           18.0911    10.6571    14.5636 H       4   all-H     0.0815
   4174 H          -14.8325     8.2445    13.7618 H       4   all-H     0.0961
   4175 H          -14.8223    10.5128    16.3285 H       4   all-H     0.0942
   4176 H          -15.3811    11.9491    16.8106 H       4   all-H     0.0775
   4177 H           16.0061     9.3999    16.8615 H       4   all-H     0.1040
   4178 H           16.6366     8.2364    15.9583 H       4   all-H     0.0703
   4179 H           17.6314     7.1592    13.3660 H       4   all-H     0.0529
   4180 H          -11.4940    11.6130    13.9036 H       4   all-H     0.0705
   4181 H          -12.6252     9.2424    13.4939 H       4   all-H     0.0907
   4182 H           15.4351     7.2688    12.3211 H       4   all-H     0.0273
   4183 H           13.3460     8.6847    12.4114 H       4   all-H     0.0352
   4184 H          -14.4845     9.3607   -17.0596 H       4   all-H     0.1217
   4185 H          -16.2140     9.5216   -19.1617 H       4   all-H     0.1096
   4186 H           18.5128     6.5778    17.1294 H       4   all-H     0.0566
   4187 H          -18.4446     5.6851   -18.8941 H       4   all-H     0.0390
   4188 H           17.6762     6.2340   -16.6720 H       4   all-H     0.0353
   4189 H           16.5455     7.7875   -16.6371 H       4   all-H     0.0986
   4190 H          -12.9735   -17.8391    13.2507 H       4   all-H     0.3249
   4191 H          -11.9981    16.9001    15.6566 H       4   all-H     0.3484
   4192 C            6.0370    -7.8269     6.8089 C       2   Sp2-C     0.1784
   4193 C            4.7232    -7.4226     6.2363 C       2   Sp2-C    -0.0110
   4194 C            3.7190    -8.2805     5.8890 C       2   Sp2-C    -0.0204
   4195 C            3.5434    -9.6175     6.2377 C       2   Sp2-C     0.1412
   4196 C            2.2210   -10.1587     5.9189 C       3   Sp3-C     0.0034
   4197 O            4.3508   -10.4400     6.8876 O       6   Sp3-O    -0.5067
   4198 O            6.7057    -7.2484     7.5619 O       5   Sp2-O    -0.4894
   4199 C            1.3709   -10.5774     7.1617 C       2   Sp2-C     0.1487
   4200 C            1.8837   -10.2168     8.3602 C       2   Sp2-C    -0.0151
   4201 C            0.9754   -10.6624     9.3230 C       2   Sp2-C    -0.0401
   4202 C           -0.0294   -11.5417     8.7039 C       2   Sp2-C     0.0670
   4203 O            0.2120   -11.2413     7.0754 O       5   Sp2-O    -0.4805
   4204 C           -0.8605   -12.2203     9.2585 C       2   Sp2-C    -0.0307
   4205 C            6.7053    -9.1487     6.2937 C       3   Sp3-C     0.0279
   4206 C           10.5988    -6.3803     5.1499 C       2   Sp2-C     0.1088
   4207 C            9.9919    -7.5814     5.2183 C       2   Sp2-C    -0.0165
   4208 C            8.6248    -7.7990     5.7309 C       2   Sp2-C     0.0088
   4209 C            8.0914    -9.0425     5.7370 C       2   Sp2-C     0.1690
   4210 O            8.4823   -10.1930     5.3002 O       6   Sp3-O    -0.4773
   4211 H            4.6815    -6.4139     5.9037 H       4   all-H     0.0569
   4212 H            2.9769    -7.7819     5.3224 H       4   all-H     0.0652
   4213 H            1.7274    -9.4804     5.1974 H       4   all-H     0.0611
   4214 H            2.3088   -10.9726     5.1766 H       4   all-H     0.0888
   4215 H            2.7803    -9.5924     8.5014 H       4   all-H     0.0704
   4216 H            1.1506   -10.5553    10.3871 H       4   all-H     0.0382
   4217 H           -1.0328   -12.3511    10.3496 H       4   all-H     0.0763
   4218 H           -1.4566   -12.7984     8.6146 H       4   all-H     0.1133
   4219 H            6.5238    -9.8592     7.0160 H       4   all-H     0.1040
   4220 H            6.0543    -9.5676     5.5160 H       4   all-H     0.0714
   4221 H           10.5572    -8.4216     4.8088 H       4   all-H     0.0757
   4222 H            8.0703    -6.9177     6.1286 H       4   all-H     0.1045
   4223 C            9.5903    13.5820    -4.7147 C       2   Sp2-C     0.2303
   4224 C           10.4429    14.7609    -5.0977 C       2   Sp2-C     0.0050
   4225 C           11.5817    15.1376    -4.4818 C       2   Sp2-C    -0.0177
   4226 C           12.2576    14.2798    -3.6173 C       2   Sp2-C     0.1547
   4227 C           13.4834    14.9397    -2.9859 C       3   Sp3-C    -0.0145
   4228 O           11.8701    13.1108    -3.2848 O       6   Sp3-O    -0.4940
   4229 O            9.0158    12.8395    -5.3911 O       5   Sp2-O    -0.4537
   4230 C           13.7850    16.2839    -3.6126 C       2   Sp2-C     0.1161
   4231 C           13.2581    17.4550    -3.0143 C       2   Sp2-C    -0.0506
   4232 C           13.7473    18.4151    -3.8264 C       2   Sp2-C    -0.0382
   4233 C           14.5569    17.8134    -4.9314 C       2   Sp2-C     0.0952
   4234 O           14.5763    16.2133    -4.6997 O       5   Sp2-O    -0.4723
   4235 C           15.0584    18.5078    -5.7979 C       2   Sp2-C    -0.0341
   4236 C            9.1093    13.5973    -3.2231 C       3   Sp3-C     0.0248
   4237 C            4.9281    13.9171    -3.1075 C       1   Sp1-C     0.1247
   4238 C            5.5097    12.8127    -2.6738 C       2   Sp2-C    -0.0463
   4239 C            6.8989    12.8938    -2.8404 C       2   Sp2-C    -0.0360
   4240 C            7.6771    14.1189    -3.1605 C       2   Sp2-C     0.1786
   4241 O            7.4959    15.2526    -3.3978 O       5   Sp2-O    -0.4986
   4242 H           10.0943    15.4864    -5.7839 H       4   all-H     0.0507
   4243 H           11.8878    16.1523    -4.7124 H       4   all-H     0.0550
   4244 H           13.2330    14.9135    -1.9096 H       4   all-H     0.0380
   4245 H           14.4066    14.2653    -3.1197 H       4   all-H     0.1276
   4246 H           12.6827    17.5005    -2.1241 H       4   all-H     0.0343
   4247 H           13.6933   -18.6384    -3.7383 H       4   all-H     0.0507
   4248 H           15.0629   -18.5238    -5.7864 H       4   all-H     0.0415
   4249 H           15.5773    18.0651    -6.6423 H       4   all-H     0.0761
   4250 H            9.3034    12.6037    -2.7359 H       4   all-H     0.0717
   4251 H            9.8635    14.0643    -2.5795 H       4   all-H     0.0700
   4252 H            5.0361    11.9693    -2.2635 H       4   all-H     0.0392
   4253 H            7.3649    11.9442    -2.6455 H       4   all-H     0.0415
   4254 C           11.0963    -3.5955   -18.2572 C       2   Sp2-C     0.1305
   4255 O           10.7512    -4.0419    18.9482 O       5   Sp2-O    -0.4866
   4256 C           12.0380    -4.4734    18.5890 C       2   Sp2-C     0.1310
   4257 C           12.9477    -4.4788   -18.9278 C       2   Sp2-C    -0.0172
   4258 C           12.3405    -3.8886   -17.7824 C       2   Sp2-C     0.0007
   4259 C           10.1322    -2.9626   -17.4385 C       2   Sp2-C     0.0128
   4260 C           13.5630    -5.3148    16.7978 C       2   Sp2-C     0.1224
   4261 O           13.6509    -6.1591    15.7177 O       5   Sp2-O    -0.4682
   4262 C           15.2736    -5.8607    15.5210 C       2   Sp2-C     0.0832
   4263 C           15.8357    -5.0213    16.5219 C       2   Sp2-C    -0.0169
   4264 C           14.7303    -4.7358    17.3382 C       2   Sp2-C    -0.0157
   4265 C           12.2568    -4.9810    17.3074 C       2   Sp2-C     0.0075
   4266 C           10.2129    -2.6106   -16.1133 C       2   Sp2-C     0.1150
   4267 C            9.0526    -2.1380   -15.5452 C       2   Sp2-C    -0.0003
   4268 C            9.4322    -1.7891   -14.2553 C       2   Sp2-C    -0.0227
   4269 C           10.7998    -2.1230   -13.8175 C       2   Sp2-C     0.0906
   4270 O           11.5494    -2.7660   -15.2520 O       6   Sp3-O    -0.4625
   4271 C           11.2926    -1.9808   -12.7277 C       2   Sp2-C    -0.0039
   4272 H           13.8748    -4.9294   -18.9566 H       4   all-H     0.0511
   4273 H           12.7895    -3.6784   -16.8422 H       4   all-H     0.0953
   4274 H            9.1305    -2.8121   -17.7728 H       4   all-H     0.0619
   4275 H           16.8600    -4.7439    16.5952 H       4   all-H     0.0792
   4276 H           14.8288    -4.0599    18.1529 H       4   all-H     0.0633
   4277 H           11.4548    -5.2176    16.6425 H       4   all-H     0.0737
   4278 H            8.0605    -1.9860   -16.0324 H       4   all-H     0.1192
   4279 H            8.6733    -1.4133   -13.5648 H       4   all-H     0.0365
   4280 H           10.8513    -1.5351   -11.8356 H       4   all-H     0.0734
   4281 H           12.3083    -2.2952   -12.7071 H       4   all-H     0.0790
   4282 C            2.9136     6.3693    18.9357 C       2   Sp2-C     0.1395
   4283 O            4.0566     7.2316    18.8938 O       5   Sp2-O    -0.4901
   4284 C            5.0943     6.0841    19.1038 C       2   Sp2-C     0.0814
   4285 C            4.5867     4.8083    19.1434 C       2   Sp2-C    -0.0208
   4286 C            3.1933     4.9567    19.0751 C       2   Sp2-C     0.0020
   4287 C            1.6514     6.9014    18.9826 C       2   Sp2-C     0.0201
   4288 C            7.5643     5.6061   -18.9081 C       2   Sp2-C     0.1215
   4289 O            8.9000     5.7970    19.2583 O       6   Sp3-O    -0.5604
   4290 C            9.3743     3.5754   -17.8105 C       2   Sp2-C     0.1131
   4291 C            8.0452     3.5788   -17.6461 C       2   Sp2-C    -0.0273
   4292 C            7.0936     4.6793   -18.1463 C       2   Sp2-C    -0.0346
   4293 C            6.4642     6.4276    19.2788 C       2   Sp2-C    -0.0074
   4294 C            0.4490     6.0899    18.9954 C       2   Sp2-C     0.1361
   4295 C           -0.7597     6.7589    19.1146 C       2   Sp2-C     0.0107
   4296 C           -1.7058     5.7548    19.0803 C       2   Sp2-C    -0.0136
   4297 C           -1.0949     4.4241    18.8964 C       2   Sp2-C     0.0938
   4298 O            0.4638     4.6780    18.8520 O       5   Sp2-O    -0.4756
   4299 C           -1.6833     3.3613    18.8264 C       2   Sp2-C    -0.0382
   4300 H            5.1237     3.8523    19.2147 H       4   all-H     0.1148
   4301 H            2.4208     4.1942    19.1489 H       4   all-H     0.1156
   4302 H            1.5184     7.9561    19.1501 H       4   all-H     0.0710
   4303 H            7.5493     2.8333   -17.0343 H       4   all-H     0.0545
   4304 H            6.0668     4.6833   -17.8740 H       4   all-H     0.0357
   4305 H            6.7785     7.3777    18.9887 H       4   all-H     0.0792
   4306 H           -0.8950     7.8096    19.2852 H       4   all-H     0.1305
   4307 H           -2.7856     5.9232    19.1464 H       4   all-H     0.0503
   4308 H           -2.7312     3.3912    18.7926 H       4   all-H     0.0467
   4309 H           -1.2568     2.4296    18.6524 H       4   all-H     0.0761
   4310 C            7.9614     7.6341    -0.7365 C       2   Sp2-C     0.1467
   4311 O            6.7297     7.9362     0.0720 O       5   Sp2-O    -0.4554
   4312 C            6.8371     9.3662     0.0759 C       2   Sp2-C     0.1352
   4313 C            7.9154     9.9448    -0.6285 C       2   Sp2-C    -0.0154
   4314 C            8.6459     8.9177    -1.0788 C       2   Sp2-C     0.0113
   4315 C            8.4675     6.4910    -1.1777 C       1   Sp1-C     0.0161
   4316 C            5.9398    10.2170     0.8180 C       2   Sp2-C    -0.0027
   4317 H            8.0823    10.9979    -0.7617 H       4   all-H     0.0402
   4318 H            9.5909     8.9407    -1.6116 H       4   all-H     0.1352
   4319 H            8.6479     5.4523    -1.4397 H       4   all-H     0.0891
   4320 H            5.1731     9.9179     1.5879 H       4   all-H     0.1061
   4321 C           10.7847     2.2697    -5.3599 C       2   Sp2-C     0.1822
   4322 O           10.3849     2.4602    -6.6707 O       5   Sp2-O    -0.4236
   4323 C            9.4779     3.7754    -6.3454 C       2   Sp2-C     0.1050
   4324 C            9.5464     4.2050    -5.0126 C       2   Sp2-C    -0.0306
   4325 C           10.2928     3.2535    -4.3635 C       2   Sp2-C    -0.0150
   4326 C           11.4852     1.2559    -4.9594 C       2   Sp2-C     0.1846
   4327 C            8.8607     4.5012    -7.3196 C       1   Sp1-C    -0.0226
   4328 H            9.0715     5.0385    -4.6012 H       4   all-H     0.0480
   4329 H           10.3850     3.2111    -3.2988 H       4   all-H     0.1034
   4330 H           11.7124     1.1388    -3.9176 H       4   all-H     0.0804
   4331 H            8.2714     5.3330    -7.7126 H       4   all-H     0.0397
   4332 C            2.6232    10.9473    13.9970 C       3   Sp3-C     0.0754
   4333 C            1.1630    10.8357    14.1395 C       2   Sp2-C    -0.0299
   4334 C            0.9915     9.6295    13.6544 C       2   Sp2-C    -0.0136
   4335 C            2.3314     9.0161    13.1647 C       3   Sp3-C     0.1373
   4336 C            3.9206     9.6353    11.1497 C       2   Sp2-C     0.1482
   4337 O            4.9050    10.5510    11.4782 O       5   Sp2-O    -0.4769
   4338 C            4.2041    11.6798    11.9823 C       2   Sp2-C     0.1390
   4339 C            2.8055    11.3251    12.4409 C       3   Sp3-C    -0.0100
   4340 C            2.6190     9.8346    11.8796 C       3   Sp3-C     0.0146
   4341 C            4.6599    12.9269    11.7126 C       2   Sp2-C     0.0286
   4342 C            3.2246    12.0647    14.8918 C       3   Sp3-C    -0.0066
   4343 C            2.3128     7.4045    12.8774 C       3   Sp3-C     0.0008
   4344 C            3.9426     8.6191    10.1844 C       2   Sp2-C     0.0117
   4345 O            3.3268     9.4207    14.0060 O       5   Sp2-O    -0.4680
   4346 C            3.8377    16.6185    11.9770 C       2   Sp2-C     0.0579
   4347 C            2.8486    16.0553    12.6767 C       2   Sp2-C    -0.0393
   4348 C            3.0984    14.5489    12.6748 C       2   Sp2-C    -0.0257
   4349 C            4.2065    14.2761    11.9767 C       2   Sp2-C     0.1002
   4350 O            5.1359    15.4264    11.2644 O       6   Sp3-O    -0.4596
   4351 O            1.4587     7.8745    10.0279 O       5   Sp2-O    -0.4923
   4352 C            2.8326     7.8080     9.7438 C       2   Sp2-C     0.1339
   4353 C            3.4483     6.9446     8.8696 C       2   Sp2-C    -0.0172
   4354 C            2.2744     6.1739     8.4518 C       2   Sp2-C     0.0058
   4355 C            1.1093     6.6926     9.1062 C       2   Sp2-C     0.1209
   4356 O            4.0435    12.5496    17.2389 O       5   Sp2-O    -0.4593
   4357 C            4.1754    11.5366    18.3829 C       2   Sp2-C     0.1237
   4358 C            3.6643    10.2105    18.0278 C       2   Sp2-C    -0.0186
   4359 C            3.2349    10.3329    16.6809 C       2   Sp2-C     0.0089
   4360 C            3.4449    11.6222    16.3450 C       2   Sp2-C     0.1538
   4361 C            1.2380     6.6387    13.6212 C       2   Sp2-C     0.1407
   4362 C            0.2313     6.0968    12.8035 C       2   Sp2-C    -0.0245
   4363 C           -0.7809     5.7551    13.6216 C       2   Sp2-C    -0.0415
   4364 C           -0.4832     6.1313    15.0660 C       3   Sp3-C     0.0719
   4365 O            1.1055     6.6361    14.9553 O       5   Sp2-O    -0.4376
   4366 C            4.6018    11.5154   -19.0670 C       2   Sp2-C    -0.0016
   4367 C            0.0992     6.0662     8.7629 C       2   Sp2-C    -0.0105
   4368 H            0.4307    11.4437    14.5989 H       4   all-H     0.0774
   4369 H            0.0474     9.0545    13.5355 H       4   all-H     0.0606
   4370 H            2.1089    12.0770    12.0624 H       4   all-H     0.0514
   4371 H            1.7686     9.7489    11.2926 H       4   all-H     0.0695
   4372 H            5.6688    12.7053    11.3180 H       4   all-H     0.1606
   4373 H            4.1422    12.6738    14.4707 H       4   all-H     0.0891
   4374 H            2.5941    12.9642    14.8405 H       4   all-H     0.0553
   4375 H            2.1102     7.4865    11.7859 H       4   all-H     0.0987
   4376 H            3.2850     7.0202    13.1038 H       4   all-H     0.1053
   4377 H            4.9725     8.5949     9.9191 H       4   all-H     0.1054
   4378 H            1.9991    16.5361    13.1370 H       4   all-H     0.0363
   4379 H            2.4171    13.8078    12.9339 H       4   all-H     0.0514
   4380 H            4.4563     6.7601     8.5708 H       4   all-H     0.0527
   4381 H            2.2727     5.3320     7.7333 H       4   all-H     0.1214
   4382 H            3.7162     9.3438    18.7129 H       4   all-H     0.0910
   4383 H            2.8718     9.5646    16.0342 H       4   all-H     0.1226
   4384 H            0.2639     5.9074    11.7175 H       4   all-H     0.0586
   4385 H           -1.6866     5.3439    13.2813 H       4   all-H     0.0333
   4386 H            4.6075    10.5895   -18.4216 H       4   all-H     0.0698
   4387 H            5.0519    12.3731   -18.5797 H       4   all-H     0.0832
   4388 H            0.1380     5.2076     8.1038 H       4   all-H     0.0692
   4389 H           -0.8490     6.3274     9.1459 H       4   all-H     0.1154
   4390 C           -6.0208     6.1680    13.6289 C       3   Sp3-C     0.0638
   4391 C           -6.0067     4.8513    12.9975 C       2   Sp2-C    -0.0548
   4392 C           -7.2699     4.5472    13.0549 C       2   Sp2-C    -0.0235
   4393 C           -8.0564     5.6275    13.8835 C       3   Sp3-C     0.1484
   4394 C           -8.1527     6.2640    16.3654 C       2   Sp2-C     0.1704
   4395 O           -7.3660     7.3381    16.7179 O       5   Sp2-O    -0.4606
   4396 C           -6.0908     7.1073    16.0589 C       2   Sp2-C     0.1388
   4397 C           -6.0493     5.9049    15.1574 C       3   Sp3-C    -0.0072
   4398 C           -7.5189     5.3685    15.3286 C       3   Sp3-C     0.0225
   4399 C           -5.0802     7.9976    16.2253 C       2   Sp2-C     0.0130
   4400 C           -4.7567     7.0958    13.2629 C       3   Sp3-C    -0.0322
   4401 C           -9.6562     5.3610    13.8209 C       3   Sp3-C     0.0064
   4402 C           -9.3321     6.0755    17.0637 C       2   Sp2-C     0.0150
   4403 O           -7.6060     6.8636    13.5764 O       5   Sp2-O    -0.4514
   4404 C           -1.5396     8.4353    15.6119 C       2   Sp2-C     0.1436
   4405 C           -1.6405     7.0365    15.4188 C       2   Sp2-C    -0.0016
   4406 C           -3.0299     6.7800    15.6431 C       2   Sp2-C    -0.0504
   4407 C           -3.6707     8.0064    15.9246 C       2   Sp2-C     0.1244
   4408 O           -2.9207     9.1418    16.0122 O       5   Sp2-O    -0.4534
   4409 O          -10.2032     3.8709    16.2725 O       5   Sp2-O    -0.4841
   4410 C          -10.2730     5.0166    17.0103 C       2   Sp2-C     0.1331
   4411 C          -11.4363     5.2386    17.8140 C       2   Sp2-C    -0.0325
   4412 C          -12.4350     4.2833    17.5629 C       2   Sp2-C    -0.0379
   4413 C          -11.7186     3.4390    16.6550 C       2   Sp2-C     0.0861
   4414 O           -4.6028     9.2811    11.9253 O       5   Sp2-O    -0.4497
   4415 C           -5.3917     9.6653    10.5187 C       2   Sp2-C     0.0916
   4416 C           -6.2642     8.4888    10.3034 C       2   Sp2-C    -0.0205
   4417 C           -6.0409     7.5204    11.2382 C       2   Sp2-C    -0.0012
   4418 C           -5.0977     8.0418    12.1081 C       2   Sp2-C     0.1601
   4419 C          -10.0708     4.8055    12.4862 C       2   Sp2-C     0.1123
   4420 C          -10.3148     3.5357    12.3656 C       2   Sp2-C    -0.0181
   4421 C          -10.7205     2.8647    10.9775 C       2   Sp2-C    -0.0067
   4422 C           -9.9564     2.8498     9.8913 C       1   Sp1-C     0.1633
   4423 O          -10.2458     5.8110    11.3215 O       6   Sp3-O    -0.4601
   4424 C           -5.3378    10.6667     9.8442 C       2   Sp2-C    -0.0163
   4425 C          -12.5065     2.4634    16.3366 C       2   Sp2-C    -0.0258
   4426 H           -5.1899     4.4124    12.6219 H       4   all-H     0.0333
   4427 H           -7.6739     3.6103    12.6466 H       4   all-H     0.0572
   4428 H           -5.2103     5.2630    15.4651 H       4   all-H     0.0183
   4429 H           -7.7136     4.3352    15.5653 H       4   all-H     0.0578
   4430 H           -5.4916     8.8739    16.6860 H       4   all-H     0.1014
   4431 H           -4.2797     7.7576    14.0495 H       4   all-H     0.0785
   4432 H           -3.8148     6.5326    12.9730 H       4   all-H     0.0325
   4433 H           -9.9325     4.6805    14.6736 H       4   all-H     0.1095
   4434 H          -10.2752     6.2286    13.9696 H       4   all-H     0.1471
   4435 H           -9.4901     6.9637    17.6988 H       4   all-H     0.0712
   4436 H           -0.4006     5.2850    15.7213 H       4   all-H     0.0948
   4437 H           -3.4076     5.8096    15.5650 H       4   all-H     0.0153
   4438 H          -11.5411     6.0587    18.5250 H       4   all-H     0.0325
   4439 H          -13.4332     4.2398    18.0500 H       4   all-H     0.0582
   4440 H           -6.9856     8.4869     9.5034 H       4   all-H     0.0592
   4441 H           -6.4443     6.5368    11.2815 H       4   all-H     0.0667
   4442 H          -10.2333     2.9038    13.2548 H       4   all-H     0.0713
   4443 H          -11.6171     2.2645    10.7540 H       4   all-H     0.0715
   4444 H           -5.9483    10.7487     8.9561 H       4   all-H     0.1057
   4445 H           -4.7210    11.4933    10.0622 H       4   all-H     0.0932
   4446 H          -13.4815     2.4177    16.6551 H       4   all-H     0.0833
   4447 H          -12.2264     1.6867    15.6336 H       4   all-H     0.0779
   4448 C            7.1888     9.0831    15.3406 C       3   Sp3-C     0.1093
   4449 C            5.9394     8.3792    15.9764 C       2   Sp2-C    -0.0188
   4450 C            5.3624     7.3263    15.5171 C       2   Sp2-C    -0.0125
   4451 C            6.0121     7.0249    14.2489 C       2   Sp2-C     0.0011
   4452 C            7.2070     8.1183    12.1067 C       2   Sp2-C     0.1475
   4453 O            8.2730     9.0207    12.3187 O       5   Sp2-O    -0.4955
   4454 C            7.7007    10.0459    13.0757 C       2   Sp2-C     0.1617
   4455 C            6.6577     9.5219    14.0259 C       3   Sp3-C     0.0242
   4456 C            6.2028     8.2219    13.2144 C       3   Sp3-C     0.0223
   4457 C            7.9827    11.3577    12.8487 C       2   Sp2-C     0.0237
   4458 C            7.3734    10.4328    16.1473 C       3   Sp3-C    -0.0089
   4459 C            6.2726     5.6852    13.9457 C       2   Sp2-C    -0.0185
   4460 C            7.1331     7.2251    11.0574 C       2   Sp2-C     0.0157
   4461 O            8.3814     8.3315    15.2474 O       6   Sp3-O    -0.5987
   4462 C            6.5187    14.0344    14.9098 C       2   Sp2-C     0.1077
   4463 C            7.2593    14.6873    13.8104 C       2   Sp2-C    -0.0228
   4464 C            7.9585    13.7735    13.0517 C       2   Sp2-C    -0.0250
   4465 C            7.5357    12.5301    13.5082 C       2   Sp2-C     0.1194
   4466 O            6.6423    12.5331    14.6525 O       5   Sp2-O    -0.4855
   4467 O            4.8119     6.2703    11.4670 O       6   Sp3-O    -0.6003
   4468 C            5.9846     6.3517    10.7943 C       2   Sp2-C     0.1353
   4469 C            6.4180     5.6231     9.7269 C       2   Sp2-C    -0.0222
   4470 C            5.6038     4.5098     9.1681 C       2   Sp2-C    -0.0448
   4471 C            4.4548     3.9812     9.7129 C       1   Sp1-C    -0.0266
   4472 O            7.5780    11.5667    18.4567 O       6   Sp3-O    -0.4765
   4473 C            8.1913     9.3861   -18.0762 C       1   Sp1-C     0.1704
   4474 C            8.7167     8.9464   -19.2273 C       2   Sp2-C    -0.0133
   4475 C            8.2145     9.2695    17.9674 C       2   Sp2-C    -0.0088
   4476 C            7.7487    10.4251    17.6213 C       2   Sp2-C     0.1363
   4477 C            6.0217     4.7000    14.9472 C       3   Sp3-C    -0.0182
   4478 C            6.3387     4.3170    16.2028 C       3   Sp3-C    -0.0176
   4479 C            6.9940     2.3090    15.8384 C       2   Sp2-C     0.0093
   4480 C            8.4497     2.4689    16.4007 C       3   Sp3-C     0.1592
   4481 O            9.5232     3.0457    16.1278 O       6   Sp3-O    -0.4693
   4482 C            8.9811     1.7859    17.4007 C       3   Sp3-C     0.0281
   4483 C            5.9407    14.5189    15.8588 C       2   Sp2-C    -0.0246
   4484 H            5.6612     8.6986    16.9555 H       4   all-H     0.0625
   4485 H            4.5977     6.7196    16.0356 H       4   all-H     0.0916
   4486 H            5.7856    10.1672    14.2537 H       4   all-H     0.1062
   4487 H            5.3525     8.2269    12.5081 H       4   all-H     0.1229
   4488 H            8.7475    11.4814    12.0482 H       4   all-H     0.0821
   4489 H            8.0582    11.1076    15.6241 H       4   all-H     0.0807
   4490 H            6.5002    11.0598    16.1035 H       4   all-H     0.1154
   4491 H            4.3978     5.4638    11.0925 H       4   all-H     0.2636
   4492 H            6.5958     5.5123    12.9173 H       4   all-H     0.0856
   4493 H            7.9334     7.3434    10.3388 H       4   all-H     0.0868
   4494 H            7.3147    15.7691    13.6712 H       4   all-H     0.0434
   4495 H            8.5933    13.9852    12.2438 H       4   all-H     0.0453
   4496 H            7.3817     5.8632     9.3404 H       4   all-H     0.0685
   4497 H            6.0035     4.1741     8.1847 H       4   all-H     0.0588
   4498 H            9.2898     8.0443   -19.0361 H       4   all-H     0.0829
   4499 H            8.2421     8.4253    17.2446 H       4   all-H     0.1119
   4500 H            6.9346     4.6378    17.0417 H       4   all-H     0.0884
   4501 H            0.5543    -0.3053    17.0988 H       4   all-H     0.2757
   4502 H            8.2831     1.0738    17.8068 H       4   all-H     0.0495
   4503 H            9.9493     1.8641    17.8572 H       4   all-H     0.1041
   4504 H            5.7930    15.6319    15.8897 H       4   all-H     0.0278
   4505 H            5.5702    13.8619    16.6864 H       4   all-H     0.1341
   4506 C            2.0314     0.7394    16.3365 C       3   Sp3-C     0.1130
   4507 C            1.1230     1.9706    16.5440 C       2   Sp2-C    -0.0225
   4508 C           -0.1097     2.1046    16.0506 C       2   Sp2-C    -0.0412
   4509 C           -0.2681     0.9552    15.2208 C       2   Sp2-C    -0.0233
   4510 C            0.5606    -0.9944    13.7443 C       2   Sp2-C     0.1366
   4511 O            1.5857    -1.8595    14.1071 O       5   Sp2-O    -0.4874
   4512 C            2.6300    -1.0114    14.5444 C       2   Sp2-C     0.1582
   4513 C            2.1799     0.4016    14.8305 C       3   Sp3-C     0.0113
   4514 C            0.6893     0.4099    14.2482 C       3   Sp3-C    -0.0087
   4515 C            3.9043    -1.4165    14.7401 C       2   Sp2-C     0.0129
   4516 C            3.4235     1.0235    16.9455 C       3   Sp3-C     0.0321
   4517 C           -1.6871     0.3796    15.2926 C       3   Sp3-C    -0.0361
   4518 C           -0.4127    -1.3625    12.8723 C       2   Sp2-C     0.0159
   4519 O            1.5634    -0.3922    17.1232 O       6   Sp3-O    -0.5769
   4520 C            6.3884     1.1297    15.3192 C       2   Sp2-C     0.1282
   4521 C            7.1479    -0.0809    15.3345 C       2   Sp2-C     0.0073
   4522 C            6.2824    -1.1680    15.1650 C       2   Sp2-C    -0.0093
   4523 C            5.0492    -0.5502    14.9331 C       2   Sp2-C     0.1182
   4524 O            4.9776     0.9124    14.8490 O       5   Sp2-O    -0.5006
   4525 O           -1.3193     0.8085    12.2392 O       5   Sp2-O    -0.4761
   4526 C           -1.3999    -0.5346    12.2402 C       2   Sp2-C     0.1343
   4527 C           -2.4318    -1.2082    11.4641 C       2   Sp2-C    -0.0053
   4528 C           -3.2784    -0.2567    10.9108 C       2   Sp2-C    -0.0063
   4529 C           -2.7499     0.9985    11.3508 C       2   Sp2-C     0.0856
   4530 O            4.3847     2.0925    18.7821 O       5   Sp2-O    -0.4792
   4531 C            3.1754     2.0019   -17.1659 C       1   Sp1-C     0.0111
   4532 C            2.5407     1.0228   -17.9041 C       2   Sp2-C    -0.0241
   4533 C            2.5520     0.7320   -19.3030 C       2   Sp2-C     0.0141
   4534 C            3.4962     1.3794    18.4508 C       2   Sp2-C     0.1956
   4535 C           -1.8561    -0.5577    16.5849 C       2   Sp2-C     0.1327
   4536 C           -1.4712    -1.8265    16.2857 C       2   Sp2-C    -0.0260
   4537 C           -1.6036    -2.5030    17.5204 C       2   Sp2-C    -0.0361
   4538 C           -2.0590    -1.5650    18.5142 C       2   Sp2-C     0.0842
   4539 O           -2.2108    -0.1354    17.7763 O       5   Sp2-O    -0.4703
   4540 C           -2.1941    -1.7821   -18.8588 C       2   Sp2-C    -0.0200
   4541 C            6.0232     3.2538    15.3299 C       3   Sp3-C     0.0149
   4542 H            1.4525     2.8242    17.1109 H       4   all-H     0.0815
   4543 H           -0.7741     2.8759    16.3136 H       4   all-H     0.0514
   4544 H            2.8022     1.0863    14.2983 H       4   all-H     0.0739
   4545 H            0.5104     0.9978    13.2789 H       4   all-H     0.0905
   4546 H            4.0765    -2.4640    14.6154 H       4   all-H     0.0749
   4547 H            4.0934     0.1471    16.8518 H       4   all-H     0.1209
   4548 H            4.0627     1.7281    16.3681 H       4   all-H     0.1159
   4549 H           -2.3350     1.2619    15.4396 H       4   all-H     0.0577
   4550 H           -1.9732    -0.1312    14.3959 H       4   all-H     0.0723
   4551 H           -0.6496    -2.4029    12.5768 H       4   all-H     0.1085
   4552 H            8.2271    -0.1236    15.5253 H       4   all-H     0.0743
   4553 H            6.5519    -2.2041    15.1976 H       4   all-H     0.0617
   4554 H           -2.5679    -2.2492    11.3220 H       4   all-H     0.0995
   4555 H           -4.1865    -0.4372    10.2626 H       4   all-H     0.1545
   4556 H            1.8687     0.5208   -17.2211 H       4   all-H     0.0719
   4557 H            1.8189     0.1577    18.8393 H       4   all-H     0.1182
   4558 H           -1.1922    -2.2586    15.3920 H       4   all-H     0.0589
   4559 H           -1.3572    -3.5116    17.6475 H       4   all-H     0.0502
   4560 H           -2.0993    -2.7890   -18.4003 H       4   all-H     0.0837
   4561 H           -2.5549    -0.9689   -18.2692 H       4   all-H     0.0928
   4562 H            8.4315     8.1145    14.3013 H       4   all-H     0.3065
   4563 H            9.4309     5.1999   -18.7856 H       4   all-H     0.2748
   4564 B           18.6648   -19.0566    19.3052 B       7     BOX     0.0000
   4565 B          -18.6648   -19.0566    19.3052 B       7     BOX     0.0000
   4566 B          -18.6648    19.0566    19.3052 B       7     BOX     0.0000
   4567 B           18.6648    19.0566    19.3052 B       7     BOX     0.0000
   4568 B           18.6648   -19.0566   -19.3052 B       7     BOX     0.0000
   4569 B          -18.6648   -19.0566   -19.3052 B       7     BOX     0.0000
   4570 B          -18.6648    19.0566   -19.3052 B       7     BOX     0.0000
   4571 B           18.6648    19.0566   -19.3052 B       7     BOX     0.0000
@<TRIPOS>BOND
     1      1      2      1
     2      1      7      1
     3      1     14      1
     4      2     20      1
     5      3      4      1
     6      3     21      1
     7      4      5      1
     8      4      6      1
     9      5      8      1
    10      5     22      1
    11      5     23      1
    12      8      9      1
    13      8     12      1
    14      9     10      1
    15      9     24      1
    16     10     11      1
    17     10     25      1
    18     11     12      1
    19     11     13      1
    20     13     26      1
    21     13     27      1
    22     14     18      1
    23     14     29      1
    24     15     16      1
    25     15    402      1
    26     16     17      1
    27     16     30      1
    28     17     18      1
    29     17     31      1
    30     18     19      1
    31     19   1059      1
    32     32     33      1
    33     32     38      1
    34     32     45      1
    35     33     34      1
    36     33     51      1
    37     34     35      1
    38     34     52      1
    39     35     36      1
    40     35     37      1
    41     36     39      1
    42     36     53      1
    43     36     54      1
    44     39     40      1
    45     39     43      1
    46     40     41      1
    47     40     55      1
    48     41     42      1
    49     41     56      1
    50     42     43      1
    51     42     44      1
    52     44     57      1
    53     44     58      1
    54     45     49      1
    55     45     59      1
    56     45     60      1
    57     46     47      1
    58     46    421      1
    59     47     61      1
    60     48     49      1
    61     49     50      1
    62     50   3593      1
    63     63     64      1
    64     63     67      1
    65     63     68      1
    66     64     65      1
    67     65     66      1
    68     65     74      1
    69     66     67      1
    70     66     81      1
    71     67     82      1
    72     68     75      1
    73     68     83      1
    74     69     70      1
    75     69     73      1
    76     69     74      1
    77     70     71      1
    78     71     72      1
    79     72     73      1
    80     72     84      1
    81     73     85      1
    82     74     86      1
    83     75     76      1
    84     75     79      1
    85     76     77      1
    86     76     87      1
    87     77     78      1
    88     77     88      1
    89     78     79      1
    90     78     80      1
    91     80     89      1
    92     80     90      1
    93     91     92      1
    94     91     95      1
    95     91     96      1
    96     93     94      1
    97     93    102      1
    98     94    109      1
    99     95    110      1
   100     96    103      1
   101     96    111      1
   102     97     98      1
   103     97    101      1
   104     97    102      1
   105     98     99      1
   106     99    100      1
   107    100    101      1
   108    100    112      1
   109    101    113      1
   110    102    114      1
   111    103    104      1
   112    103    107      1
   113    104    105      1
   114    104    115      1
   115    105    106      1
   116    105    116      1
   117    106    107      1
   118    106    108      1
   119    108    117      1
   120    108    118      1
   121    119    123      1
   122    119    124      1
   123    120    121      1
   124    120   1883      1
   125    121    122      1
   126    121    125      1
   127    122    123      1
   128    122    126      1
   129    123    127      1
   130    124    128      1
   131    125    129      1
   132    125   3344      1
   133    130    131      1
   134    130    134      1
   135    131    132      1
   136    132    133      1
   137    132    136      1
   138    133    134      1
   139    133    137      1
   140    135    139      1
   141    136    140      1
   142    141    145      1
   143    141    146      1
   144    142    143      1
   145    142   3689      1
   146    143    144      1
   147    143    147      1
   148    144    148      1
   149    145    149      1
   150    146    150      1
   151    147    151      1
   152    152    153      1
   153    152    159      1
   154    152    162      1
   155    152    165      1
   156    153    154      1
   157    153    188      1
   158    154    155      1
   159    154    189      1
   160    155    160      1
   161    155    163      1
   162    155    165      1
   163    156    157      1
   164    156    160      1
   165    156    164      1
   166    157    158      1
   167    158    159      1
   168    158    161      1
   169    159    160      1
   170    159    190      1
   171    160    191      1
   172    161    192      1
   173    162    180      1
   174    162    193      1
   175    162    194      1
   176    163    181      1
   177    163    195      1
   178    163    196      1
   179    164    172      1
   180    164    197      1
   181    166    167      1
   182    166   3141      1
   183    167    168      1
   184    167    198      1
   185    168    169      1
   186    168    199      1
   187    169    170      1
   188    170   3845      1
   189    171    172      1
   190    171    175      1
   191    172    173      1
   192    173    174      1
   193    173    200      1
   194    174    175      1
   195    174    201      1
   196    175    187      1
   197    176    177      1
   198    176    180      1
   199    177    178      1
   200    177    186      1
   201    178    179      1
   202    178    202      1
   203    179    180      1
   204    179    203      1
   205    181    182      1
   206    181    185      1
   207    182    183      1
   208    182    204      1
   209    183    184      1
   210    183    205      1
   211    184    185      1
   212    184    225      1
   213    184    256      1
   214    186    206      1
   215    186    207      1
   216    187    208      1
   217    187    209      1
   218    210    211      1
   219    210    217      1
   220    210    220      1
   221    211    246      1
   222    212    213      1
   223    212    247      1
   224    213    218      1
   225    213    221      1
   226    213    223      1
   227    214    215      1
   228    214    218      1
   229    214    222      1
   230    215    216      1
   231    217    248      1
   232    218    249      1
   233    219    227      1
   234    220    238      1
   235    220    251      1
   236    220    252      1
   237    221    239      1
   238    221    253      1
   239    221    254      1
   240    222    230      1
   241    222    255      1
   242    224    225      1
   243    224    228      1
   244    225    226      1
   245    226    227      1
   246    226    257      1
   247    227    228      1
   248    229    230      1
   249    229    233      1
   250    230    231      1
   251    231    232      1
   252    231    258      1
   253    232    233      1
   254    232    259      1
   255    233    245      1
   256    234    235      1
   257    234    238      1
   258    235    236      1
   259    235    244      1
   260    236    237      1
   261    236    260      1
   262    237    238      1
   263    237    261      1
   264    239    240      1
   265    239    243      1
   266    240    241      1
   267    240    262      1
   268    241    242      1
   269    241    263      1
   270    242   4270      1
   271    244    265      1
   272    245    266      1
   273    245    267      1
   274    268    269      1
   275    268    275      1
   276    268    278      1
   277    268    281      1
   278    269    270      1
   279    269    304      1
   280    270    271      1
   281    270    305      1
   282    271    276      1
   283    271    279      1
   284    272    273      1
   285    272    276      1
   286    272    280      1
   287    273    274      1
   288    274    275      1
   289    274    277      1
   290    275    276      1
   291    275    306      1
   292    276    307      1
   293    277    285      1
   294    277    308      1
   295    278    296      1
   296    278    309      1
   297    278    310      1
   298    279    297      1
   299    279    312      1
   300    280    288      1
   301    280    313      1
   302    281    382      1
   303    282    286      1
   304    282    303      1
   305    283    314      1
   306    284    285      1
   307    285    286      1
   308    287    288      1
   309    287    311      1
   310    288    289      1
   311    289    290      1
   312    289    316      1
   313    290    291      1
   314    290    317      1
   315    291   1668      1
   316    292    293      1
   317    292    296      1
   318    293    294      1
   319    294    295      1
   320    294    318      1
   321    295    296      1
   322    295    319      1
   323    297    298      1
   324    297    361      1
   325    298    320      1
   326    298    361      1
   327    299    300      1
   328    299    340      1
   329    299    361      1
   330    300    301      1
   331    300    302      1
   332    301   3088      1
   333    302    322      1
   334    302    323      1
   335    303    325      1
   336    321    339      1
   337    326    327      1
   338    326    333      1
   339    326    336      1
   340    326    339      1
   341    327    328      1
   342    327    362      1
   343    328    329      1
   344    328    363      1
   345    329    334      1
   346    329    337      1
   347    330    331      1
   348    330    334      1
   349    330    338      1
   350    331    332      1
   351    332    333      1
   352    332    335      1
   353    333    334      1
   354    333    364      1
   355    334    365      1
   356    335    343      1
   357    335    366      1
   358    336    354      1
   359    336    367      1
   360    336    368      1
   361    337    355      1
   362    337    369      1
   363    337    370      1
   364    338    346      1
   365    338    371      1
   366    340    341      1
   367    340    344      1
   368    341    342      1
   369    341    372      1
   370    342    343      1
   371    342    373      1
   372    343    344      1
   373    345    346      1
   374    345    349      1
   375    346    347      1
   376    347    348      1
   377    347    374      1
   378    348    349      1
   379    348    375      1
   380    350    354      1
   381    351    352      1
   382    351   1702      1
   383    352    353      1
   384    352    376      1
   385    353    354      1
   386    353    377      1
   387    355    356      1
   388    355    359      1
   389    356    378      1
   390    357    358      1
   391    357    379      1
   392    358    360      1
   393    360    380      1
   394    360    381      1
   395    383   3092      1
   396    384    385      1
   397    384    390      1
   398    384    397      1
   399    385    386      1
   400    385    403      1
   401    386    387      1
   402    386    404      1
   403    387    389      1
   404    388    391      1
   405    388    405      1
   406    388    406      1
   407    389    932      1
   408    391    392      1
   409    391    395      1
   410    392    393      1
   411    392    407      1
   412    393    394      1
   413    393    408      1
   414    394    395      1
   415    394    396      1
   416    396    409      1
   417    396    410      1
   418    397    411      1
   419    397    412      1
   420    398    399      1
   421    398   1774      1
   422    400    414      1
   423    401    402      1
   424    415    416      1
   425    415    428      1
   426    416    417      1
   427    416    434      1
   428    417    418      1
   429    417    435      1
   430    418    419      1
   431    418    420      1
   432    419    422      1
   433    419    436      1
   434    419    437      1
   435    420   3560      1
   436    422    423      1
   437    422    426      1
   438    423    424      1
   439    423    438      1
   440    424    425      1
   441    424    439      1
   442    425    426      1
   443    425    427      1
   444    427    440      1
   445    427    441      1
   446    428    432      1
   447    428    442      1
   448    428    443      1
   449    429    430      1
   450    429    433      1
   451    430    431      1
   452    431    432      1
   453    431    445      1
   454    432    433      1
   455    446    447      1
   456    446    450      1
   457    446    451      1
   458    447    448      1
   459    448    449      1
   460    449    450      1
   461    450    465      1
   462    451    458      1
   463    451    466      1
   464    452    453      1
   465    452    456      1
   466    452    457      1
   467    453    454      1
   468    454    455      1
   469    454   1678      1
   470    455    456      1
   471    455    467      1
   472    456    468      1
   473    458    459      1
   474    458    462      1
   475    459    460      1
   476    459    470      1
   477    460    461      1
   478    460    471      1
   479    461    462      1
   480    461    463      1
   481    463    472      1
   482    463    473      1
   483    474    475      1
   484    474    478      1
   485    474    479      1
   486    475    476      1
   487    476    477      1
   488    476    485      1
   489    477    478      1
   490    477    492      1
   491    478    493      1
   492    479    486      1
   493    479    494      1
   494    480    481      1
   495    480    484      1
   496    480    485      1
   497    481    482      1
   498    482    483      1
   499    483    484      1
   500    483    495      1
   501    484    496      1
   502    485    497      1
   503    486    487      1
   504    486    490      1
   505    487    488      1
   506    487    498      1
   507    488    489      1
   508    488    499      1
   509    489    490      1
   510    489    491      1
   511    491    500      1
   512    491    501      1
   513    502    503      1
   514    502    506      1
   515    502    507      1
   516    503    504      1
   517    504    505      1
   518    504    508      1
   519    505    506      1
   520    505    509      1
   521    506    510      1
   522    507    511      1
   523    507   3506      1
   524    508    512      1
   525    513    514      1
   526    513    517      1
   527    513    518      1
   528    514    515      1
   529    515    516      1
   530    515    519      1
   531    516    517      1
   532    516    520      1
   533    517    521      1
   534    518    522      1
   535    519    523      1
   536    519   3738      1
   537    524    525      1
   538    524    528      1
   539    524    529      1
   540    525    526      1
   541    526    527      1
   542    526    530      1
   543    527    528      1
   544    527    531      1
   545    528    532      1
   546    529    533      1
   547    529   2769      1
   548    535    536      1
   549    535    542      1
   550    535    545      1
   551    535    548      1
   552    536    537      1
   553    536    571      1
   554    537    538      1
   555    537    572      1
   556    538    543      1
   557    538    546      1
   558    538    548      1
   559    539    540      1
   560    539    543      1
   561    539    547      1
   562    540    541      1
   563    541    542      1
   564    541    544      1
   565    542    543      1
   566    543    574      1
   567    544    552      1
   568    544    575      1
   569    545    563      1
   570    545    576      1
   571    545    577      1
   572    546    564      1
   573    546    578      1
   574    546    579      1
   575    547    580      1
   576    549    550      1
   577    549    891      1
   578    550    551      1
   579    550    581      1
   580    551    582      1
   581    552    553      1
   582    553   1589      1
   583    554    555      1
   584    554    558      1
   585    555    556      1
   586    556    557      1
   587    557    558      1
   588    557    584      1
   589    558    570      1
   590    559    560      1
   591    559    563      1
   592    560    561      1
   593    560    569      1
   594    561    562      1
   595    561    585      1
   596    562    563      1
   597    562    586      1
   598    564    565      1
   599    564    568      1
   600    565    566      1
   601    565    587      1
   602    566    567      1
   603    566    588      1
   604    567    568      1
   605    567    608      1
   606    567    639      1
   607    569    589      1
   608    569    590      1
   609    570    591      1
   610    570    592      1
   611    593    594      1
   612    593    600      1
   613    593    603      1
   614    593    606      1
   615    594    595      1
   616    594    629      1
   617    595    596      1
   618    595    630      1
   619    596    601      1
   620    596    604      1
   621    596    606      1
   622    597    598      1
   623    597    601      1
   624    597    605      1
   625    598    599      1
   626    599    600      1
   627    599    602      1
   628    600    601      1
   629    600    631      1
   630    601    632      1
   631    602    610      1
   632    602    633      1
   633    603    621      1
   634    603    634      1
   635    603    635      1
   636    604    622      1
   637    604    636      1
   638    604    637      1
   639    605    613      1
   640    605    638      1
   641    607    608      1
   642    607    611      1
   643    608    609      1
   644    609    610      1
   645    609    640      1
   646    610    611      1
   647    612    613      1
   648    612    616      1
   649    613    614      1
   650    614    615      1
   651    614    641      1
   652    615    616      1
   653    615    642      1
   654    616    628      1
   655    617    618      1
   656    617    621      1
   657    618    619      1
   658    618    627      1
   659    619    620      1
   660    619    643      1
   661    620    621      1
   662    620    644      1
   663    622    623      1
   664    622    626      1
   665    623    624      1
   666    623    645      1
   667    624    646      1
   668    625    865      1
   669    626   3199      1
   670    627    647      1
   671    627    648      1
   672    628    649      1
   673    628    650      1
   674    651    652      1
   675    651    658      1
   676    651    661      1
   677    651    664      1
   678    652    653      1
   679    652    687      1
   680    653    654      1
   681    653    688      1
   682    654    659      1
   683    654    662      1
   684    655    656      1
   685    655    659      1
   686    655    663      1
   687    656    657      1
   688    657    658      1
   689    657    660      1
   690    658    659      1
   691    658    689      1
   692    659    690      1
   693    660    668      1
   694    660    691      1
   695    661    679      1
   696    661    692      1
   697    661    693      1
   698    662    680      1
   699    662    694      1
   700    662    695      1
   701    663    696      1
   702    664    765      1
   703    665    666      1
   704    665    669      1
   705    665    686      1
   706    666    667      1
   707    666    697      1
   708    667    668      1
   709    667    698      1
   710    668    669      1
   711    670    671      1
   712    670   3798      1
   713    671    672      1
   714    672    673      1
   715    673    674      1
   716    673    700      1
   717    674   2040      1
   718    675    679      1
   719    676    677      1
   720    676   1580      1
   721    677    678      1
   722    677    701      1
   723    678    679      1
   724    678    702      1
   725    680    681      1
   726    680    744      1
   727    681    703      1
   728    681    744      1
   729    682    683      1
   730    682    723      1
   731    682    744      1
   732    683    684      1
   733    683    685      1
   734    684    766      1
   735    685    705      1
   736    685    706      1
   737    686    707      1
   738    686    708      1
   739    704    713      1
   740    709    710      1
   741    709    716      1
   742    709    719      1
   743    709    722      1
   744    710    711      1
   745    710    745      1
   746    711    712      1
   747    711    746      1
   748    712    717      1
   749    712    720      1
   750    713    714      1
   751    713    721      1
   752    714    715      1
   753    715    718      1
   754    716    717      1
   755    716    747      1
   756    717    748      1
   757    718    749      1
   758    719    737      1
   759    719    750      1
   760    719    751      1
   761    720    738      1
   762    720    752      1
   763    720    753      1
   764    721    754      1
   765    723    724      1
   766    723    727      1
   767    724    725      1
   768    724    755      1
   769    725    726      1
   770    725    756      1
   771    726    727      1
   772    729    730      1
   773    730    731      1
   774    730    757      1
   775    731    732      1
   776    731    758      1
   777    733    737      1
   778    734    735      1
   779    735    736      1
   780    735    759      1
   781    736    737      1
   782    736    760      1
   783    738    742      1
   784    739    740      1
   785    739    761      1
   786    740    762      1
   787    741    742      1
   788    741    743      1
   789    743    764      1
   790    767    768      1
   791    767    773      1
   792    767    780      1
   793    768    769      1
   794    768    786      1
   795    769    770      1
   796    769    787      1
   797    770    771      1
   798    770    772      1
   799    771    774      1
   800    771    788      1
   801    771    789      1
   802    772   2070      1
   803    774    775      1
   804    774    778      1
   805    775    776      1
   806    775    790      1
   807    776    777      1
   808    776    791      1
   809    777    778      1
   810    777    779      1
   811    779    792      1
   812    779    793      1
   813    780    784      1
   814    780    794      1
   815    780    795      1
   816    781    782      1
   817    781    785      1
   818    782    783      1
   819    782    796      1
   820    783    784      1
   821    783    797      1
   822    784    785      1
   823    798    799      1
   824    798    804      1
   825    798    811      1
   826    799    800      1
   827    799    817      1
   828    800    801      1
   829    800    818      1
   830    801    802      1
   831    802    805      1
   832    802    820      1
   833    805    806      1
   834    805    809      1
   835    806    807      1
   836    806    821      1
   837    807    808      1
   838    807    822      1
   839    808    809      1
   840    808    810      1
   841    810    823      1
   842    810    824      1
   843    811    815      1
   844    811    825      1
   845    811    826      1
   846    812    813      1
   847    813    814      1
   848    813    827      1
   849    814    815      1
   850    814    828      1
   851    815    816      1
   852    816   2412      1
   853    829    830      1
   854    829    833      1
   855    829    834      1
   856    830    831      1
   857    831    832      1
   858    831    840      1
   859    832    833      1
   860    832    847      1
   861    833    848      1
   862    834    841      1
   863    834    849      1
   864    835    836      1
   865    835    839      1
   866    835    840      1
   867    836    837      1
   868    837    838      1
   869    837   1549      1
   870    838    839      1
   871    838    850      1
   872    839    851      1
   873    840    852      1
   874    841    842      1
   875    841    845      1
   876    842    843      1
   877    842    853      1
   878    843    844      1
   879    843    854      1
   880    844    845      1
   881    844    846      1
   882    846    855      1
   883    846    856      1
   884    857    858      1
   885    857    861      1
   886    857    862      1
   887    858    859      1
   888    859    860      1
   889    859    868      1
   890    860    861      1
   891    860    875      1
   892    861    876      1
   893    862    869      1
   894    862    877      1
   895    863    864      1
   896    863    867      1
   897    863    868      1
   898    864    865      1
   899    865    866      1
   900    866    867      1
   901    866    878      1
   902    867    879      1
   903    868    880      1
   904    869    870      1
   905    869    873      1
   906    870    871      1
   907    870    881      1
   908    871    872      1
   909    871    882      1
   910    872    873      1
   911    872    874      1
   912    874    883      1
   913    874    884      1
   914    885    886      1
   915    885    889      1
   916    885    890      1
   917    886    887      1
   918    887    888      1
   919    887    891      1
   920    888    889      1
   921    888    892      1
   922    889    893      1
   923    890    894      1
   924    891    895      1
   925    896    897      1
   926    896    901      1
   927    897    898      1
   928    898    902      1
   929    899    900      1
   930    899    903      1
   931    900    904      1
   932    901    905      1
   933    902    906      1
   934    902   4099      1
   935    907    908      1
   936    907    911      1
   937    907    912      1
   938    908   1825      1
   939    909    910      1
   940    909    913      1
   941    910    911      1
   942    910    914      1
   943    911    915      1
   944    912    916      1
   945    913    917      1
   946    918    919      1
   947    918    925      1
   948    918    928      1
   949    918    931      1
   950    919    920      1
   951    919    954      1
   952    920    921      1
   953    920    955      1
   954    921    926      1
   955    921    931      1
   956    922    923      1
   957    922    926      1
   958    922    930      1
   959    923    924      1
   960    924    925      1
   961    924    927      1
   962    925    926      1
   963    925    956      1
   964    926    957      1
   965    927    935      1
   966    927    958      1
   967    928    946      1
   968    928    959      1
   969    928    960      1
   970    929    947      1
   971    929    961      1
   972    929    962      1
   973    930    938      1
   974    932    933      1
   975    932    936      1
   976    933    934      1
   977    933    964      1
   978    934    935      1
   979    934    965      1
   980    935    936      1
   981    937    938      1
   982    937    941      1
   983    939    940      1
   984    939    966      1
   985    940    967      1
   986    941    953      1
   987    942    943      1
   988    942    946      1
   989    943    944      1
   990    943    952      1
   991    944    945      1
   992    944    968      1
   993    945    946      1
   994    945    969      1
   995    947    951      1
   996    948    949      1
   997    948    970      1
   998    949    971      1
   999    950    951      1
  1000    950   1022      1
  1001    952    973      1
  1002    953    975      1
  1003    976    977      1
  1004    976    983      1
  1005    976    986      1
  1006    976    989      1
  1007    977    978      1
  1008    977   1012      1
  1009    978    979      1
  1010    978   1013      1
  1011    979    984      1
  1012    979    987      1
  1013    979    989      1
  1014    980    981      1
  1015    980    984      1
  1016    980    988      1
  1017    981    982      1
  1018    982    983      1
  1019    982    985      1
  1020    983    984      1
  1021    983   1014      1
  1022    984   1015      1
  1023    985    993      1
  1024    985   1016      1
  1025    986   1004      1
  1026    986   1017      1
  1027    986   1018      1
  1028    987   1005      1
  1029    987   1019      1
  1030    987   1020      1
  1031    988    996      1
  1032    988   1021      1
  1033    990    991      1
  1034    990    994      1
  1035    991    992      1
  1036    992    993      1
  1037    992   1023      1
  1038    993    994      1
  1039    995    996      1
  1040    995   1698      1
  1041    996    997      1
  1042    997    998      1
  1043    997   1024      1
  1044    998    999      1
  1045    998   1025      1
  1046    999   1011      1
  1047   1000   1001      1
  1048   1000   1004      1
  1049   1001   1002      1
  1050   1001   1010      1
  1051   1002   1003      1
  1052   1002   1026      1
  1053   1003   1004      1
  1054   1003   1027      1
  1055   1005   1006      1
  1056   1005   1009      1
  1057   1006   1007      1
  1058   1006   1028      1
  1059   1007   1008      1
  1060   1007   1029      1
  1061   1008   3473      1
  1062   1009   4326      1
  1063   1010   1030      1
  1064   1010   1031      1
  1065   1011   1032      1
  1066   1011   1033      1
  1067   1034   1035      1
  1068   1034   1041      1
  1069   1034   1047      1
  1070   1035   1036      1
  1071   1036   1037      1
  1072   1036   1071      1
  1073   1037   1042      1
  1074   1037   1045      1
  1075   1038   1039      1
  1076   1038   1042      1
  1077   1038   1046      1
  1078   1039   1040      1
  1079   1040   1041      1
  1080   1040   1043      1
  1081   1041   1042      1
  1082   1042   1073      1
  1083   1043   1074      1
  1084   1044   1076      1
  1085   1045   1063      1
  1086   1045   1078      1
  1087   1046   1054      1
  1088   1046   1079      1
  1089   1047   1148      1
  1090   1048   1052      1
  1091   1048   1069      1
  1092   1049   1050      1
  1093   1049   1080      1
  1094   1050   1081      1
  1095   1051   1052      1
  1096   1053   1054      1
  1097   1053   1077      1
  1098   1054   1055      1
  1099   1055   1056      1
  1100   1055   1082      1
  1101   1056   1057      1
  1102   1056   1083      1
  1103   1057   2423      1
  1104   1058   1062      1
  1105   1060   1084      1
  1106   1061   1085      1
  1107   1063   1064      1
  1108   1063   1127      1
  1109   1064   1086      1
  1110   1064   1127      1
  1111   1065   1066      1
  1112   1065   1106      1
  1113   1065   1127      1
  1114   1066   1067      1
  1115   1066   1068      1
  1116   1067   1149      1
  1117   1068   1088      1
  1118   1068   1089      1
  1119   1069   1091      1
  1120   1087   1105      1
  1121   1092   1093      1
  1122   1092   1099      1
  1123   1092   1102      1
  1124   1092   1105      1
  1125   1093   1094      1
  1126   1093   1128      1
  1127   1094   1095      1
  1128   1094   1129      1
  1129   1095   1100      1
  1130   1095   1103      1
  1131   1096   1097      1
  1132   1096   1100      1
  1133   1096   1104      1
  1134   1097   1098      1
  1135   1098   1099      1
  1136   1098   1101      1
  1137   1099   1100      1
  1138   1099   1130      1
  1139   1100   1131      1
  1140   1101   1109      1
  1141   1101   1132      1
  1142   1102   1120      1
  1143   1102   1133      1
  1144   1102   1134      1
  1145   1103   1121      1
  1146   1103   1136      1
  1147   1104   1112      1
  1148   1104   1137      1
  1149   1106   1107      1
  1150   1106   1110      1
  1151   1107   1108      1
  1152   1107   1138      1
  1153   1108   1109      1
  1154   1108   1139      1
  1155   1109   1110      1
  1156   1111   1112      1
  1157   1111   1135      1
  1158   1112   1113      1
  1159   1113   1114      1
  1160   1113   1140      1
  1161   1114   1115      1
  1162   1114   1141      1
  1163   1116   1117      1
  1164   1116   1120      1
  1165   1117   1118      1
  1166   1118   1119      1
  1167   1118   1142      1
  1168   1119   1120      1
  1169   1119   1143      1
  1170   1121   1122      1
  1171   1121   1125      1
  1172   1122   1123      1
  1173   1122   1144      1
  1174   1123   1124      1
  1175   1123   1145      1
  1176   1124   1125      1
  1177   1124   1126      1
  1178   1126   1146      1
  1179   1126   1147      1
  1180   1150   1151      1
  1181   1150   1156      1
  1182   1150   1163      1
  1183   1151   1152      1
  1184   1151   1169      1
  1185   1152   1153      1
  1186   1152   1170      1
  1187   1153   1154      1
  1188   1153   1155      1
  1189   1154   1157      1
  1190   1154   1171      1
  1191   1154   1172      1
  1192   1157   1158      1
  1193   1157   1161      1
  1194   1158   1159      1
  1195   1158   1173      1
  1196   1159   1160      1
  1197   1159   1174      1
  1198   1160   1161      1
  1199   1160   1162      1
  1200   1162   1175      1
  1201   1162   1176      1
  1202   1163   1167      1
  1203   1163   1177      1
  1204   1163   1178      1
  1205   1164   1165      1
  1206   1164   2682      1
  1207   1165   1166      1
  1208   1165   1179      1
  1209   1166   1167      1
  1210   1166   1180      1
  1211   1167   1168      1
  1212   1168   1274      1
  1213   1181   1182      1
  1214   1181   1187      1
  1215   1181   1194      1
  1216   1182   1183      1
  1217   1182   1200      1
  1218   1183   1184      1
  1219   1183   1201      1
  1220   1184   1185      1
  1221   1184   1186      1
  1222   1185   1188      1
  1223   1185   1202      1
  1224   1185   1203      1
  1225   1188   1189      1
  1226   1188   1192      1
  1227   1189   1190      1
  1228   1189   1204      1
  1229   1190   1191      1
  1230   1190   1205      1
  1231   1191   1192      1
  1232   1191   1193      1
  1233   1193   1206      1
  1234   1193   1207      1
  1235   1194   1198      1
  1236   1194   1208      1
  1237   1194   1209      1
  1238   1195   1824      1
  1239   1196   1197      1
  1240   1196   1210      1
  1241   1197   1198      1
  1242   1197   1211      1
  1243   1198   1199      1
  1244   1212   1213      1
  1245   1212   1216      1
  1246   1212   1217      1
  1247   1213   1214      1
  1248   1214   1215      1
  1249   1214   1223      1
  1250   1215   1216      1
  1251   1215   1230      1
  1252   1216   1231      1
  1253   1217   1224      1
  1254   1217   1232      1
  1255   1218   1219      1
  1256   1218   1222      1
  1257   1219   1220      1
  1258   1220   1221      1
  1259   1221   1222      1
  1260   1221   1233      1
  1261   1222   1234      1
  1262   1223   1235      1
  1263   1224   1225      1
  1264   1224   1228      1
  1265   1225   1226      1
  1266   1225   1236      1
  1267   1226   1227      1
  1268   1226   1237      1
  1269   1227   1229      1
  1270   1228   1558      1
  1271   1229   1238      1
  1272   1229   1239      1
  1273   1240   1241      1
  1274   1240   1244      1
  1275   1240   1245      1
  1276   1241   1242      1
  1277   1242   1243      1
  1278   1242   1251      1
  1279   1243   1244      1
  1280   1243   1258      1
  1281   1244   1259      1
  1282   1245   1252      1
  1283   1245   1260      1
  1284   1246   1247      1
  1285   1246   1250      1
  1286   1246   1251      1
  1287   1248   1249      1
  1288   1249   1261      1
  1289   1250   1262      1
  1290   1251   1263      1
  1291   1252   1253      1
  1292   1252   1256      1
  1293   1253   1254      1
  1294   1253   1264      1
  1295   1254   1255      1
  1296   1254   1265      1
  1297   1255   1256      1
  1298   1255   1257      1
  1299   1257   1266      1
  1300   1257   1267      1
  1301   1268   1269      1
  1302   1268   1272      1
  1303   1268   1273      1
  1304   1269   1270      1
  1305   1270   1271      1
  1306   1270   1274      1
  1307   1271   1272      1
  1308   1271   1275      1
  1309   1272   1276      1
  1310   1273   1277      1
  1311   1274   1278      1
  1312   1279   1280      1
  1313   1279   1283      1
  1314   1279   1284      1
  1315   1280   1281      1
  1316   1281   1282      1
  1317   1281   1285      1
  1318   1282   1283      1
  1319   1282   1286      1
  1320   1283   1287      1
  1321   1284   1288      1
  1322   1285   1289      1
  1323   1285   4471      1
  1324   1290   1291      1
  1325   1290   1294      1
  1326   1290   1295      1
  1327   1291   4206      1
  1328   1292   1293      1
  1329   1292   1296      1
  1330   1293   1294      1
  1331   1293   1297      1
  1332   1294   1298      1
  1333   1295   1299      1
  1334   1296   1300      1
  1335   1301   1305      1
  1336   1301   1306      1
  1337   1302   1303      1
  1338   1302   2197      1
  1339   1303   1304      1
  1340   1303   1307      1
  1341   1304   1305      1
  1342   1304   1308      1
  1343   1305   1309      1
  1344   1306   1310      1
  1345   1307   1311      1
  1346   1312   1313      1
  1347   1312   1319      1
  1348   1312   1322      1
  1349   1312   1325      1
  1350   1313   1314      1
  1351   1313   1348      1
  1352   1314   1315      1
  1353   1314   1349      1
  1354   1315   1320      1
  1355   1315   1323      1
  1356   1315   1325      1
  1357   1316   1317      1
  1358   1316   1320      1
  1359   1316   1324      1
  1360   1317   1318      1
  1361   1318   1319      1
  1362   1318   1321      1
  1363   1319   1320      1
  1364   1319   1350      1
  1365   1320   1351      1
  1366   1321   1329      1
  1367   1321   1352      1
  1368   1322   1340      1
  1369   1322   1353      1
  1370   1322   1354      1
  1371   1323   1341      1
  1372   1323   1355      1
  1373   1323   1356      1
  1374   1324   1332      1
  1375   1324   1357      1
  1376   1326   1327      1
  1377   1326   1330      1
  1378   1327   1328      1
  1379   1327   1358      1
  1380   1328   1329      1
  1381   1328   1359      1
  1382   1329   1330      1
  1383   1331   1332      1
  1384   1331   1335      1
  1385   1332   1333      1
  1386   1333   1334      1
  1387   1333   1360      1
  1388   1334   1335      1
  1389   1334   1361      1
  1390   1335   1347      1
  1391   1336   1337      1
  1392   1336   1340      1
  1393   1337   1338      1
  1394   1337   1346      1
  1395   1338   1339      1
  1396   1338   1362      1
  1397   1339   1340      1
  1398   1339   1363      1
  1399   1341   1342      1
  1400   1341   1345      1
  1401   1342   1343      1
  1402   1342   1364      1
  1403   1343   1344      1
  1404   1343   1365      1
  1405   1344   1345      1
  1406   1344   1385      1
  1407   1344   1416      1
  1408   1346   1366      1
  1409   1346   1367      1
  1410   1347   1368      1
  1411   1347   1369      1
  1412   1370   1371      1
  1413   1370   1377      1
  1414   1370   1380      1
  1415   1370   1383      1
  1416   1371   1372      1
  1417   1371   1406      1
  1418   1372   1373      1
  1419   1372   1407      1
  1420   1373   1378      1
  1421   1373   1381      1
  1422   1373   1383      1
  1423   1374   1375      1
  1424   1374   1378      1
  1425   1375   1376      1
  1426   1376   1377      1
  1427   1376   1379      1
  1428   1377   1378      1
  1429   1377   1408      1
  1430   1378   1409      1
  1431   1379   1387      1
  1432   1379   1410      1
  1433   1380   1398      1
  1434   1380   1411      1
  1435   1380   1412      1
  1436   1381   1399      1
  1437   1381   1413      1
  1438   1381   1414      1
  1439   1382   1390      1
  1440   1382   1415      1
  1441   1384   1385      1
  1442   1384   1388      1
  1443   1385   1386      1
  1444   1386   1387      1
  1445   1386   1417      1
  1446   1387   1388      1
  1447   1389   1393      1
  1448   1390   1391      1
  1449   1391   1392      1
  1450   1391   1418      1
  1451   1392   1419      1
  1452   1393   1405      1
  1453   1394   1395      1
  1454   1394   1398      1
  1455   1395   1396      1
  1456   1395   1404      1
  1457   1396   1397      1
  1458   1396   1420      1
  1459   1397   1398      1
  1460   1397   1421      1
  1461   1399   1400      1
  1462   1399   1403      1
  1463   1400   1401      1
  1464   1400   1422      1
  1465   1401   1402      1
  1466   1401   1423      1
  1467   1402   3162      1
  1468   1404   1424      1
  1469   1404   1425      1
  1470   1405   1426      1
  1471   1405   1427      1
  1472   1428   1429      1
  1473   1428   1435      1
  1474   1428   1438      1
  1475   1429   1430      1
  1476   1429   1464      1
  1477   1430   1431      1
  1478   1430   1465      1
  1479   1431   1436      1
  1480   1431   1439      1
  1481   1432   1433      1
  1482   1432   1436      1
  1483   1432   1440      1
  1484   1433   1434      1
  1485   1434   1435      1
  1486   1434   1437      1
  1487   1435   1436      1
  1488   1435   1466      1
  1489   1436   1467      1
  1490   1437   1445      1
  1491   1437   1468      1
  1492   1438   1456      1
  1493   1438   1469      1
  1494   1438   1470      1
  1495   1439   1457      1
  1496   1439   1472      1
  1497   1440   1448      1
  1498   1440   1473      1
  1499   1441   1542      1
  1500   1441   4050      1
  1501   1442   1443      1
  1502   1442   1446      1
  1503   1442   1463      1
  1504   1443   1444      1
  1505   1443   1474      1
  1506   1444   1445      1
  1507   1444   1475      1
  1508   1445   1446      1
  1509   1447   1448      1
  1510   1447   1471      1
  1511   1448   1449      1
  1512   1449   1450      1
  1513   1449   1476      1
  1514   1450   1451      1
  1515   1450   1477      1
  1516   1451   2795      1
  1517   1452   1456      1
  1518   1452   4473      1
  1519   1453   1454      1
  1520   1454   1455      1
  1521   1454   1478      1
  1522   1455   1456      1
  1523   1455   1479      1
  1524   1457   1458      1
  1525   1457   1521      1
  1526   1458   1480      1
  1527   1458   1521      1
  1528   1459   1460      1
  1529   1459   1500      1
  1530   1459   1521      1
  1531   1460   1461      1
  1532   1460   1462      1
  1533   1461   1543      1
  1534   1463   1484      1
  1535   1463   1485      1
  1536   1481   1499      1
  1537   1486   1487      1
  1538   1486   1493      1
  1539   1486   1496      1
  1540   1486   1499      1
  1541   1487   1488      1
  1542   1487   1522      1
  1543   1488   1489      1
  1544   1488   1523      1
  1545   1489   1494      1
  1546   1489   1497      1
  1547   1490   1491      1
  1548   1490   1494      1
  1549   1490   1498      1
  1550   1491   1492      1
  1551   1492   1493      1
  1552   1492   1495      1
  1553   1493   1494      1
  1554   1493   1524      1
  1555   1494   1525      1
  1556   1495   1503      1
  1557   1495   1526      1
  1558   1496   1514      1
  1559   1496   1527      1
  1560   1496   1528      1
  1561   1497   1515      1
  1562   1497   1529      1
  1563   1497   1530      1
  1564   1498   1506      1
  1565   1498   1531      1
  1566   1500   1501      1
  1567   1500   1504      1
  1568   1501   1502      1
  1569   1501   1532      1
  1570   1502   1503      1
  1571   1502   1533      1
  1572   1503   1504      1
  1573   1505   1506      1
  1574   1505   1509      1
  1575   1506   1507      1
  1576   1507   1508      1
  1577   1507   1534      1
  1578   1508   1509      1
  1579   1508   1535      1
  1580   1510   1514      1
  1581   1511   1512      1
  1582   1512   1513      1
  1583   1512   1536      1
  1584   1513   1514      1
  1585   1513   1537      1
  1586   1515   1516      1
  1587   1515   1519      1
  1588   1516   1517      1
  1589   1516   1538      1
  1590   1517   1518      1
  1591   1517   1539      1
  1592   1518   1519      1
  1593   1518   1520      1
  1594   1520   1540      1
  1595   1520   1541      1
  1596   1544   1545      1
  1597   1544   1550      1
  1598   1544   1557      1
  1599   1545   1546      1
  1600   1545   1563      1
  1601   1546   1547      1
  1602   1546   1564      1
  1603   1547   1548      1
  1604   1547   1549      1
  1605   1548   1551      1
  1606   1548   1565      1
  1607   1548   1566      1
  1608   1551   1552      1
  1609   1551   1555      1
  1610   1552   1553      1
  1611   1552   1567      1
  1612   1553   1554      1
  1613   1553   1568      1
  1614   1554   1555      1
  1615   1554   1556      1
  1616   1556   1569      1
  1617   1556   1570      1
  1618   1557   1561      1
  1619   1557   1571      1
  1620   1557   1572      1
  1621   1558   1559      1
  1622   1559   1560      1
  1623   1559   1573      1
  1624   1560   1561      1
  1625   1560   1574      1
  1626   1561   1562      1
  1627   1575   1576      1
  1628   1575   1581      1
  1629   1575   1588      1
  1630   1576   1577      1
  1631   1576   1594      1
  1632   1577   1578      1
  1633   1577   1595      1
  1634   1578   1579      1
  1635   1578   1580      1
  1636   1579   1582      1
  1637   1579   1596      1
  1638   1579   1597      1
  1639   1582   1583      1
  1640   1582   1586      1
  1641   1583   1584      1
  1642   1583   1598      1
  1643   1584   1585      1
  1644   1584   1599      1
  1645   1585   1586      1
  1646   1585   1587      1
  1647   1587   1600      1
  1648   1587   1601      1
  1649   1588   1592      1
  1650   1588   1602      1
  1651   1588   1603      1
  1652   1589   1590      1
  1653   1590   1591      1
  1654   1590   1604      1
  1655   1591   1592      1
  1656   1591   1605      1
  1657   1592   1593      1
  1658   1606   1607      1
  1659   1606   1610      1
  1660   1606   1611      1
  1661   1607   1608      1
  1662   1608   1609      1
  1663   1608   1617      1
  1664   1609   1610      1
  1665   1609   1624      1
  1666   1610   1625      1
  1667   1611   1618      1
  1668   1611   1626      1
  1669   1612   1613      1
  1670   1612   1616      1
  1671   1612   1617      1
  1672   1613   1614      1
  1673   1614   1615      1
  1674   1615   1616      1
  1675   1615   1627      1
  1676   1616   1628      1
  1677   1617   1629      1
  1678   1618   1619      1
  1679   1618   1622      1
  1680   1619   1620      1
  1681   1619   1630      1
  1682   1620   1621      1
  1683   1620   1631      1
  1684   1621   1622      1
  1685   1621   1623      1
  1686   1623   1632      1
  1687   1623   1633      1
  1688   1634   1635      1
  1689   1634   1638      1
  1690   1634   1639      1
  1691   1635   1636      1
  1692   1636   1637      1
  1693   1637   1638      1
  1694   1638   1653      1
  1695   1639   1646      1
  1696   1639   1654      1
  1697   1640   1641      1
  1698   1640   1644      1
  1699   1640   1645      1
  1700   1641   1642      1
  1701   1642   1643      1
  1702   1643   1644      1
  1703   1643   1655      1
  1704   1644   1656      1
  1705   1645   1657      1
  1706   1646   1647      1
  1707   1646   1650      1
  1708   1647   1648      1
  1709   1647   1658      1
  1710   1648   1649      1
  1711   1648   1659      1
  1712   1649   1650      1
  1713   1649   1651      1
  1714   1651   1660      1
  1715   1651   1661      1
  1716   1662   1663      1
  1717   1662   1666      1
  1718   1662   1667      1
  1719   1663   1664      1
  1720   1664   1665      1
  1721   1664   1668      1
  1722   1665   1666      1
  1723   1665   1669      1
  1724   1666   1670      1
  1725   1667   1671      1
  1726   1668   1672      1
  1727   1673   1674      1
  1728   1673   1677      1
  1729   1673   1678      1
  1730   1674   1675      1
  1731   1675   1676      1
  1732   1675   1679      1
  1733   1676   1677      1
  1734   1676   1680      1
  1735   1677   1681      1
  1736   1678   1682      1
  1737   1679   1683      1
  1738   1684   1685      1
  1739   1684   1691      1
  1740   1684   1694      1
  1741   1684   1697      1
  1742   1685   1686      1
  1743   1686   1687      1
  1744   1686   1721      1
  1745   1687   1692      1
  1746   1687   1695      1
  1747   1687   1697      1
  1748   1688   1689      1
  1749   1688   1692      1
  1750   1688   1696      1
  1751   1689   1690      1
  1752   1690   1691      1
  1753   1690   1693      1
  1754   1691   1692      1
  1755   1691   1722      1
  1756   1692   1723      1
  1757   1693   1701      1
  1758   1693   1724      1
  1759   1694   1725      1
  1760   1694   1726      1
  1761   1695   1713      1
  1762   1695   1727      1
  1763   1695   1728      1
  1764   1696   1704      1
  1765   1696   1729      1
  1766   1699   1700      1
  1767   1699   1730      1
  1768   1700   1701      1
  1769   1700   1731      1
  1770   1701   1702      1
  1771   1703   1704      1
  1772   1703   1707      1
  1773   1704   1705      1
  1774   1705   1706      1
  1775   1705   1732      1
  1776   1706   1707      1
  1777   1706   1733      1
  1778   1707   1719      1
  1779   1708   1709      1
  1780   1708   1712      1
  1781   1709   1710      1
  1782   1709   1718      1
  1783   1710   1711      1
  1784   1710   1734      1
  1785   1711   1712      1
  1786   1713   1714      1
  1787   1713   1717      1
  1788   1714   1715      1
  1789   1714   1736      1
  1790   1716   1757      1
  1791   1716   1788      1
  1792   1718   1738      1
  1793   1718   1739      1
  1794   1719   1740      1
  1795   1719   1741      1
  1796   1742   1743      1
  1797   1742   1749      1
  1798   1742   1752      1
  1799   1742   1755      1
  1800   1743   1744      1
  1801   1743   1778      1
  1802   1744   1745      1
  1803   1744   1779      1
  1804   1745   1750      1
  1805   1745   1753      1
  1806   1745   1755      1
  1807   1746   1747      1
  1808   1746   1750      1
  1809   1746   1754      1
  1810   1747   1748      1
  1811   1748   1749      1
  1812   1748   1751      1
  1813   1749   1750      1
  1814   1749   1780      1
  1815   1750   1781      1
  1816   1751   1759      1
  1817   1751   1782      1
  1818   1752   1770      1
  1819   1752   1783      1
  1820   1752   1784      1
  1821   1753   1771      1
  1822   1753   1785      1
  1823   1753   1786      1
  1824   1754   1762      1
  1825   1754   1787      1
  1826   1756   1757      1
  1827   1756   1760      1
  1828   1757   1758      1
  1829   1758   1759      1
  1830   1758   1789      1
  1831   1760   2685      1
  1832   1761   1762      1
  1833   1761   1765      1
  1834   1762   1763      1
  1835   1763   1764      1
  1836   1763   1790      1
  1837   1764   1765      1
  1838   1764   1791      1
  1839   1765   1777      1
  1840   1766   1767      1
  1841   1766   1770      1
  1842   1767   1768      1
  1843   1768   1769      1
  1844   1768   1792      1
  1845   1769   1770      1
  1846   1769   1793      1
  1847   1771   1772      1
  1848   1771   1775      1
  1849   1772   1773      1
  1850   1772   1794      1
  1851   1773   1774      1
  1852   1773   1795      1
  1853   1776   1796      1
  1854   1776   1797      1
  1855   1777   1798      1
  1856   1777   1799      1
  1857   1800   1801      1
  1858   1800   1807      1
  1859   1800   1810      1
  1860   1800   1813      1
  1861   1801   1802      1
  1862   1801   1836      1
  1863   1802   1803      1
  1864   1802   1837      1
  1865   1803   1808      1
  1866   1803   1811      1
  1867   1804   1805      1
  1868   1804   1808      1
  1869   1804   1812      1
  1870   1805   1806      1
  1871   1806   1807      1
  1872   1806   1809      1
  1873   1807   1808      1
  1874   1807   1838      1
  1875   1808   1839      1
  1876   1809   1817      1
  1877   1809   1840      1
  1878   1810   1828      1
  1879   1810   1841      1
  1880   1810   1842      1
  1881   1811   1829      1
  1882   1811   1844      1
  1883   1812   1820      1
  1884   1812   1845      1
  1885   1813   1914      1
  1886   1814   1815      1
  1887   1814   1818      1
  1888   1814   1835      1
  1889   1815   1816      1
  1890   1815   1846      1
  1891   1816   1817      1
  1892   1816   1847      1
  1893   1817   1818      1
  1894   1819   1820      1
  1895   1819   1843      1
  1896   1820   1821      1
  1897   1821   1822      1
  1898   1821   1848      1
  1899   1822   1823      1
  1900   1822   1849      1
  1901   1823   3178      1
  1902   1824   1828      1
  1903   1825   1826      1
  1904   1826   1827      1
  1905   1826   1850      1
  1906   1827   1828      1
  1907   1827   1851      1
  1908   1829   1830      1
  1909   1829   1893      1
  1910   1830   1852      1
  1911   1830   1893      1
  1912   1831   1832      1
  1913   1831   1872      1
  1914   1831   1893      1
  1915   1832   1833      1
  1916   1832   1834      1
  1917   1833   1915      1
  1918   1834   1854      1
  1919   1834   1855      1
  1920   1835   1856      1
  1921   1835   1857      1
  1922   1858   1865      1
  1923   1858   1868      1
  1924   1859   1860      1
  1925   1859   1894      1
  1926   1860   1861      1
  1927   1860   1895      1
  1928   1861   1869      1
  1929   1862   1863      1
  1930   1862   1866      1
  1931   1862   1870      1
  1932   1863   1864      1
  1933   1864   1865      1
  1934   1864   1867      1
  1935   1865   1866      1
  1936   1865   1896      1
  1937   1866   1897      1
  1938   1867   1875      1
  1939   1867   1898      1
  1940   1868   1899      1
  1941   1868   1900      1
  1942   1869   1887      1
  1943   1869   1901      1
  1944   1869   1902      1
  1945   1870   1878      1
  1946   1870   1903      1
  1947   1872   1873      1
  1948   1872   1876      1
  1949   1873   1874      1
  1950   1873   1904      1
  1951   1874   1875      1
  1952   1874   1905      1
  1953   1875   1876      1
  1954   1877   1878      1
  1955   1877   1881      1
  1956   1878   1879      1
  1957   1879   1880      1
  1958   1879   1906      1
  1959   1880   1881      1
  1960   1880   1907      1
  1961   1883   1884      1
  1962   1884   1885      1
  1963   1884   1908      1
  1964   1885   1886      1
  1965   1885   1909      1
  1966   1887   1888      1
  1967   1887   1891      1
  1968   1888   1889      1
  1969   1888   1910      1
  1970   1889   1890      1
  1971   1889   1911      1
  1972   1890   1891      1
  1973   1890   1892      1
  1974   1892   1912      1
  1975   1892   1913      1
  1976   1916   1917      1
  1977   1916   1922      1
  1978   1916   1929      1
  1979   1917   1918      1
  1980   1917   1935      1
  1981   1918   1919      1
  1982   1919   1920      1
  1983   1919   1921      1
  1984   1920   1937      1
  1985   1920   1938      1
  1986   1923   1924      1
  1987   1923   1927      1
  1988   1924   1925      1
  1989   1925   1926      1
  1990   1925   1940      1
  1991   1926   1927      1
  1992   1926   1928      1
  1993   1928   1941      1
  1994   1928   1942      1
  1995   1929   1933      1
  1996   1929   1943      1
  1997   1929   1944      1
  1998   1930   1931      1
  1999   1930   4197      1
  2000   1931   1932      1
  2001   1931   1945      1
  2002   1932   1933      1
  2003   1932   1946      1
  2004   1933   1934      1
  2005   1947   1948      1
  2006   1947   1953      1
  2007   1947   1960      1
  2008   1948   1949      1
  2009   1948   1966      1
  2010   1949   1950      1
  2011   1949   1967      1
  2012   1950   1952      1
  2013   1951   1954      1
  2014   1951   1968      1
  2015   1951   1969      1
  2016   1954   1955      1
  2017   1954   1958      1
  2018   1955   1956      1
  2019   1955   1970      1
  2020   1956   1957      1
  2021   1956   1971      1
  2022   1957   1958      1
  2023   1957   1959      1
  2024   1959   1972      1
  2025   1959   1973      1
  2026   1960   1964      1
  2027   1960   1974      1
  2028   1960   1975      1
  2029   1961   1962      1
  2030   1961   2046      1
  2031   1962   1963      1
  2032   1962   1976      1
  2033   1963   1964      1
  2034   1963   1977      1
  2035   1964   1965      1
  2036   1978   1979      1
  2037   1978   1982      1
  2038   1978   1983      1
  2039   1979   1980      1
  2040   1980   1981      1
  2041   1980   1989      1
  2042   1981   1982      1
  2043   1981   1996      1
  2044   1982   1997      1
  2045   1983   1990      1
  2046   1983   1998      1
  2047   1984   1985      1
  2048   1984   1988      1
  2049   1984   1989      1
  2050   1985   1986      1
  2051   1986   1987      1
  2052   1987   1988      1
  2053   1987   1999      1
  2054   1988   2000      1
  2055   1989   2001      1
  2056   1990   1991      1
  2057   1990   1994      1
  2058   1991   1992      1
  2059   1991   2002      1
  2060   1992   1993      1
  2061   1992   2003      1
  2062   1993   1994      1
  2063   1995   2004      1
  2064   1995   2005      1
  2065   2006   2007      1
  2066   2006   2010      1
  2067   2006   2011      1
  2068   2007   2008      1
  2069   2008   2009      1
  2070   2008   2017      1
  2071   2009   2010      1
  2072   2009   2024      1
  2073   2010   2025      1
  2074   2011   2018      1
  2075   2011   2026      1
  2076   2012   2013      1
  2077   2012   2016      1
  2078   2012   2017      1
  2079   2013   2287      1
  2080   2014   2015      1
  2081   2014   2689      1
  2082   2015   2016      1
  2083   2015   2027      1
  2084   2016   2028      1
  2085   2017   2029      1
  2086   2018   2019      1
  2087   2018   2022      1
  2088   2019   2020      1
  2089   2019   2030      1
  2090   2020   2021      1
  2091   2020   2031      1
  2092   2021   2022      1
  2093   2021   2023      1
  2094   2023   2032      1
  2095   2023   2033      1
  2096   2034   2035      1
  2097   2034   2038      1
  2098   2034   2039      1
  2099   2035   2036      1
  2100   2036   2037      1
  2101   2036   2040      1
  2102   2037   2038      1
  2103   2037   2041      1
  2104   2038   2042      1
  2105   2039   2043      1
  2106   2040   2044      1
  2107   2045   2049      1
  2108   2045   2050      1
  2109   2047   2048      1
  2110   2048   2049      1
  2111   2048   2052      1
  2112   2049   2053      1
  2113   2050   2054      1
  2114   2051   2055      1
  2115   2056   2057      1
  2116   2056   2063      1
  2117   2056   2066      1
  2118   2056   2069      1
  2119   2057   2058      1
  2120   2057   2092      1
  2121   2058   2059      1
  2122   2058   2093      1
  2123   2059   2064      1
  2124   2059   2067      1
  2125   2059   2069      1
  2126   2060   2061      1
  2127   2060   2064      1
  2128   2060   2068      1
  2129   2061   2062      1
  2130   2062   2063      1
  2131   2062   2065      1
  2132   2063   2064      1
  2133   2063   2094      1
  2134   2064   2095      1
  2135   2065   2073      1
  2136   2065   2096      1
  2137   2066   2084      1
  2138   2066   2097      1
  2139   2066   2098      1
  2140   2067   2085      1
  2141   2067   2099      1
  2142   2067   2100      1
  2143   2068   2076      1
  2144   2068   2101      1
  2145   2070   2071      1
  2146   2070   2074      1
  2147   2071   2072      1
  2148   2071   2102      1
  2149   2072   2073      1
  2150   2072   2103      1
  2151   2073   2074      1
  2152   2075   2076      1
  2153   2075   2079      1
  2154   2076   2077      1
  2155   2077   2078      1
  2156   2077   2104      1
  2157   2078   2079      1
  2158   2078   2105      1
  2159   2079   2091      1
  2160   2080   2081      1
  2161   2080   2084      1
  2162   2081   2082      1
  2163   2081   2090      1
  2164   2082   2083      1
  2165   2082   2106      1
  2166   2083   2084      1
  2167   2083   2107      1
  2168   2085   2086      1
  2169   2085   2089      1
  2170   2086   2087      1
  2171   2086   2108      1
  2172   2087   2088      1
  2173   2087   2109      1
  2174   2088   2089      1
  2175   2088   2129      1
  2176   2088   2160      1
  2177   2090   2110      1
  2178   2090   2111      1
  2179   2091   2112      1
  2180   2091   2113      1
  2181   2114   2115      1
  2182   2114   2121      1
  2183   2114   2124      1
  2184   2114   2127      1
  2185   2115   2116      1
  2186   2115   2150      1
  2187   2116   2117      1
  2188   2116   2151      1
  2189   2117   2122      1
  2190   2117   2125      1
  2191   2117   2127      1
  2192   2118   2119      1
  2193   2118   2122      1
  2194   2118   2126      1
  2195   2119   2120      1
  2196   2120   2121      1
  2197   2120   2123      1
  2198   2121   2122      1
  2199   2121   2152      1
  2200   2122   2153      1
  2201   2123   2131      1
  2202   2123   2154      1
  2203   2124   2142      1
  2204   2124   2155      1
  2205   2124   2156      1
  2206   2125   2143      1
  2207   2125   2157      1
  2208   2125   2158      1
  2209   2126   2134      1
  2210   2126   2159      1
  2211   2128   2129      1
  2212   2128   2132      1
  2213   2129   2130      1
  2214   2130   2131      1
  2215   2130   2161      1
  2216   2131   2132      1
  2217   2133   2134      1
  2218   2133   2137      1
  2219   2134   2135      1
  2220   2135   2136      1
  2221   2135   2162      1
  2222   2136   2137      1
  2223   2136   2163      1
  2224   2137   2149      1
  2225   2138   2139      1
  2226   2138   2142      1
  2227   2139   2140      1
  2228   2139   2148      1
  2229   2140   2141      1
  2230   2140   2164      1
  2231   2141   2142      1
  2232   2141   2165      1
  2233   2143   2144      1
  2234   2143   2147      1
  2235   2144   2145      1
  2236   2144   2166      1
  2237   2145   2146      1
  2238   2145   2167      1
  2239   2146   2147      1
  2240   2148   2168      1
  2241   2148   2169      1
  2242   2149   2170      1
  2243   2149   2171      1
  2244   2172   2173      1
  2245   2172   2179      1
  2246   2172   2182      1
  2247   2172   2185      1
  2248   2173   2174      1
  2249   2173   2208      1
  2250   2174   2175      1
  2251   2174   2209      1
  2252   2175   2180      1
  2253   2175   2183      1
  2254   2176   2177      1
  2255   2176   2180      1
  2256   2176   2184      1
  2257   2177   2178      1
  2258   2178   2179      1
  2259   2178   2181      1
  2260   2179   2180      1
  2261   2179   2210      1
  2262   2180   2211      1
  2263   2181   2189      1
  2264   2181   2212      1
  2265   2182   2200      1
  2266   2182   2213      1
  2267   2182   2214      1
  2268   2183   2201      1
  2269   2183   2215      1
  2270   2183   2216      1
  2271   2184   2192      1
  2272   2184   2217      1
  2273   2185   2286      1
  2274   2186   2187      1
  2275   2186   2190      1
  2276   2186   2207      1
  2277   2187   2188      1
  2278   2187   2218      1
  2279   2188   2189      1
  2280   2188   2219      1
  2281   2189   2190      1
  2282   2191   2192      1
  2283   2192   2193      1
  2284   2193   2194      1
  2285   2193   2220      1
  2286   2194   2195      1
  2287   2194   2221      1
  2288   2195   3583      1
  2289   2196   2200      1
  2290   2197   2198      1
  2291   2198   2199      1
  2292   2198   2222      1
  2293   2199   2200      1
  2294   2199   2223      1
  2295   2201   2202      1
  2296   2201   2205      1
  2297   2201   2265      1
  2298   2202   2224      1
  2299   2202   2265      1
  2300   2203   2204      1
  2301   2203   2244      1
  2302   2203   2265      1
  2303   2204   2205      1
  2304   2204   2206      1
  2305   2206   2226      1
  2306   2206   2227      1
  2307   2207   2228      1
  2308   2207   2229      1
  2309   2225   2243      1
  2310   2230   2231      1
  2311   2230   2237      1
  2312   2230   2240      1
  2313   2230   2243      1
  2314   2231   2232      1
  2315   2231   2266      1
  2316   2232   2233      1
  2317   2232   2267      1
  2318   2233   2238      1
  2319   2233   2241      1
  2320   2234   2235      1
  2321   2234   2238      1
  2322   2234   2242      1
  2323   2235   2236      1
  2324   2236   2237      1
  2325   2236   2239      1
  2326   2237   2238      1
  2327   2237   2268      1
  2328   2238   2269      1
  2329   2239   2247      1
  2330   2239   2270      1
  2331   2240   2258      1
  2332   2240   2271      1
  2333   2240   2272      1
  2334   2241   2259      1
  2335   2241   2273      1
  2336   2241   2274      1
  2337   2242   2250      1
  2338   2242   2275      1
  2339   2244   2245      1
  2340   2244   2248      1
  2341   2245   2246      1
  2342   2245   2276      1
  2343   2246   2247      1
  2344   2246   2277      1
  2345   2247   2248      1
  2346   2249   2250      1
  2347   2249   2253      1
  2348   2250   2251      1
  2349   2251   2252      1
  2350   2251   2278      1
  2351   2252   2253      1
  2352   2252   2279      1
  2353   2254   2258      1
  2354   2255   2256      1
  2355   2255   4210      1
  2356   2256   2257      1
  2357   2256   2280      1
  2358   2257   2258      1
  2359   2257   2281      1
  2360   2259   2260      1
  2361   2259   2263      1
  2362   2260   2261      1
  2363   2260   2282      1
  2364   2261   2262      1
  2365   2261   2283      1
  2366   2262   2263      1
  2367   2262   2264      1
  2368   2264   2284      1
  2369   2264   2285      1
  2370   2288   2289      1
  2371   2288   2294      1
  2372   2288   2301      1
  2373   2289   2290      1
  2374   2289   2307      1
  2375   2290   2291      1
  2376   2290   2308      1
  2377   2291   2292      1
  2378   2291   2293      1
  2379   2292   2295      1
  2380   2292   2309      1
  2381   2292   2310      1
  2382   2295   2296      1
  2383   2295   2299      1
  2384   2296   2297      1
  2385   2296   2311      1
  2386   2297   2298      1
  2387   2297   2312      1
  2388   2298   2299      1
  2389   2298   2300      1
  2390   2300   2313      1
  2391   2300   2314      1
  2392   2301   2305      1
  2393   2301   2315      1
  2394   2301   2316      1
  2395   2302   2303      1
  2396   2302   3836      1
  2397   2303   2304      1
  2398   2303   2317      1
  2399   2304   2305      1
  2400   2304   2318      1
  2401   2305   2306      1
  2402   2319   2320      1
  2403   2319   2325      1
  2404   2319   2332      1
  2405   2320   2321      1
  2406   2320   2338      1
  2407   2321   2322      1
  2408   2321   2339      1
  2409   2322   2323      1
  2410   2322   2324      1
  2411   2323   2326      1
  2412   2323   2340      1
  2413   2323   2341      1
  2414   2326   2327      1
  2415   2326   2330      1
  2416   2327   2342      1
  2417   2328   2329      1
  2418   2328   2343      1
  2419   2329   2331      1
  2420   2331   2344      1
  2421   2331   2345      1
  2422   2332   2336      1
  2423   2332   2346      1
  2424   2332   2347      1
  2425   2333   2433      1
  2426   2334   2335      1
  2427   2334   2348      1
  2428   2335   2336      1
  2429   2335   2349      1
  2430   2336   2337      1
  2431   2337   4101      1
  2432   2350   2351      1
  2433   2350   2354      1
  2434   2350   2355      1
  2435   2351   2352      1
  2436   2352   2353      1
  2437   2352   2361      1
  2438   2353   2354      1
  2439   2353   2368      1
  2440   2354   2369      1
  2441   2355   2362      1
  2442   2355   2370      1
  2443   2356   2357      1
  2444   2356   2360      1
  2445   2356   2361      1
  2446   2357   2358      1
  2447   2358   2359      1
  2448   2359   2360      1
  2449   2359   2371      1
  2450   2360   2372      1
  2451   2361   2373      1
  2452   2362   2363      1
  2453   2362   2366      1
  2454   2363   2364      1
  2455   2363   2374      1
  2456   2364   2365      1
  2457   2364   2375      1
  2458   2365   2366      1
  2459   2365   2367      1
  2460   2367   2376      1
  2461   2367   2377      1
  2462   2378   2383      1
  2463   2379   2380      1
  2464   2380   2381      1
  2465   2380   2389      1
  2466   2382   2397      1
  2467   2383   2398      1
  2468   2384   2385      1
  2469   2384   2388      1
  2470   2384   2389      1
  2471   2385   2386      1
  2472   2386   2387      1
  2473   2387   2388      1
  2474   2387   2399      1
  2475   2389   2401      1
  2476   2390   2391      1
  2477   2390   2394      1
  2478   2391   2392      1
  2479   2391   2402      1
  2480   2392   2393      1
  2481   2392   2403      1
  2482   2393   2394      1
  2483   2393   2395      1
  2484   2395   2404      1
  2485   2395   2405      1
  2486   2406   2407      1
  2487   2406   2410      1
  2488   2406   2411      1
  2489   2407   2408      1
  2490   2408   2409      1
  2491   2408   2412      1
  2492   2409   2410      1
  2493   2409   2413      1
  2494   2410   2414      1
  2495   2412   2416      1
  2496   2417   2418      1
  2497   2417   2421      1
  2498   2417   2422      1
  2499   2418   2419      1
  2500   2419   2420      1
  2501   2419   2423      1
  2502   2420   2421      1
  2503   2420   2424      1
  2504   2421   2425      1
  2505   2422   2426      1
  2506   2423   2427      1
  2507   2428   2429      1
  2508   2428   2432      1
  2509   2428   2433      1
  2510   2429   2430      1
  2511   2430   2431      1
  2512   2430   2434      1
  2513   2431   2432      1
  2514   2431   2435      1
  2515   2432   2436      1
  2516   2433   2437      1
  2517   2434   2438      1
  2518   2439   2440      1
  2519   2439   2446      1
  2520   2439   2452      1
  2521   2440   2441      1
  2522   2440   2475      1
  2523   2441   2442      1
  2524   2441   2476      1
  2525   2442   2447      1
  2526   2442   2450      1
  2527   2442   2452      1
  2528   2443   2447      1
  2529   2443   2451      1
  2530   2445   2446      1
  2531   2446   2447      1
  2532   2446   2477      1
  2533   2447   2478      1
  2534   2448   2456      1
  2535   2449   2467      1
  2536   2449   2480      1
  2537   2449   2481      1
  2538   2450   2468      1
  2539   2450   2482      1
  2540   2450   2483      1
  2541   2451   2459      1
  2542   2453   2454      1
  2543   2453   2457      1
  2544   2454   2455      1
  2545   2454   2485      1
  2546   2455   2456      1
  2547   2455   2486      1
  2548   2456   2457      1
  2549   2458   2459      1
  2550   2458   2462      1
  2551   2459   2460      1
  2552   2460   2461      1
  2553   2461   2462      1
  2554   2461   2488      1
  2555   2462   2474      1
  2556   2463   2464      1
  2557   2463   2467      1
  2558   2464   2465      1
  2559   2464   2473      1
  2560   2466   2490      1
  2561   2468   2469      1
  2562   2468   2472      1
  2563   2469   2470      1
  2564   2469   2491      1
  2565   2470   2471      1
  2566   2470   2492      1
  2567   2471   2472      1
  2568   2471   2512      1
  2569   2471   2543      1
  2570   2473   2493      1
  2571   2473   2494      1
  2572   2474   2495      1
  2573   2474   2496      1
  2574   2497   2498      1
  2575   2497   2504      1
  2576   2497   2507      1
  2577   2497   2510      1
  2578   2498   2499      1
  2579   2498   2533      1
  2580   2499   2500      1
  2581   2499   2534      1
  2582   2500   2505      1
  2583   2500   2508      1
  2584   2500   2510      1
  2585   2501   2502      1
  2586   2501   2505      1
  2587   2501   2509      1
  2588   2502   2503      1
  2589   2503   2504      1
  2590   2503   2506      1
  2591   2504   2505      1
  2592   2504   2535      1
  2593   2505   2536      1
  2594   2506   2514      1
  2595   2506   2537      1
  2596   2507   2525      1
  2597   2507   2538      1
  2598   2507   2539      1
  2599   2508   2526      1
  2600   2508   2540      1
  2601   2508   2541      1
  2602   2509   2517      1
  2603   2509   2542      1
  2604   2511   2512      1
  2605   2511   2515      1
  2606   2512   2513      1
  2607   2513   2514      1
  2608   2513   2544      1
  2609   2514   2515      1
  2610   2516   2517      1
  2611   2516   2520      1
  2612   2517   2518      1
  2613   2518   2519      1
  2614   2518   2545      1
  2615   2519   2520      1
  2616   2519   2546      1
  2617   2520   2532      1
  2618   2521   2522      1
  2619   2521   2525      1
  2620   2522   2523      1
  2621   2522   2531      1
  2622   2523   2524      1
  2623   2523   2547      1
  2624   2524   2525      1
  2625   2524   2548      1
  2626   2526   2527      1
  2627   2526   2530      1
  2628   2527   2528      1
  2629   2527   2549      1
  2630   2528   2529      1
  2631   2528   2550      1
  2632   2529   4350      1
  2633   2531   2551      1
  2634   2531   2552      1
  2635   2532   2553      1
  2636   2532   2554      1
  2637   2555   2556      1
  2638   2555   2562      1
  2639   2555   2565      1
  2640   2555   2568      1
  2641   2556   2557      1
  2642   2556   2591      1
  2643   2557   2558      1
  2644   2557   2592      1
  2645   2558   2563      1
  2646   2558   2566      1
  2647   2559   2560      1
  2648   2559   2563      1
  2649   2559   2567      1
  2650   2560   2561      1
  2651   2561   2562      1
  2652   2561   2564      1
  2653   2562   2563      1
  2654   2562   2593      1
  2655   2563   2594      1
  2656   2564   2595      1
  2657   2565   2583      1
  2658   2565   2596      1
  2659   2565   2597      1
  2660   2566   2584      1
  2661   2566   2598      1
  2662   2567   2575      1
  2663   2567   2600      1
  2664   2569   2570      1
  2665   2569   2573      1
  2666   2569   2590      1
  2667   2570   2571      1
  2668   2570   2601      1
  2669   2571   2572      1
  2670   2571   2602      1
  2671   2572   2573      1
  2672   2574   2575      1
  2673   2574   2599      1
  2674   2575   2576      1
  2675   2576   2577      1
  2676   2576   2603      1
  2677   2577   2578      1
  2678   2577   2604      1
  2679   2578   3955      1
  2680   2579   2580      1
  2681   2580   2581      1
  2682   2581   2605      1
  2683   2582   2583      1
  2684   2582   2606      1
  2685   2584   2585      1
  2686   2584   2648      1
  2687   2585   2607      1
  2688   2585   2648      1
  2689   2586   2587      1
  2690   2586   2627      1
  2691   2586   2648      1
  2692   2587   2588      1
  2693   2587   2589      1
  2694   2588   2670      1
  2695   2589   2609      1
  2696   2589   2610      1
  2697   2590   2611      1
  2698   2590   2612      1
  2699   2608   2626      1
  2700   2613   2614      1
  2701   2613   2620      1
  2702   2613   2623      1
  2703   2613   2626      1
  2704   2614   2615      1
  2705   2614   2649      1
  2706   2615   2650      1
  2707   2616   2621      1
  2708   2616   2624      1
  2709   2617   2621      1
  2710   2617   2625      1
  2711   2618   2619      1
  2712   2619   2620      1
  2713   2619   2622      1
  2714   2620   2651      1
  2715   2621   2652      1
  2716   2622   2630      1
  2717   2622   2653      1
  2718   2623   2641      1
  2719   2623   2654      1
  2720   2623   2655      1
  2721   2624   2642      1
  2722   2624   2656      1
  2723   2624   2657      1
  2724   2625   2633      1
  2725   2625   2658      1
  2726   2627   2628      1
  2727   2627   2631      1
  2728   2628   2629      1
  2729   2628   2659      1
  2730   2629   2630      1
  2731   2629   2660      1
  2732   2630   2631      1
  2733   2632   2633      1
  2734   2632   2636      1
  2735   2633   2634      1
  2736   2634   2635      1
  2737   2634   2661      1
  2738   2635   2636      1
  2739   2635   2662      1
  2740   2637   2641      1
  2741   2639   2640      1
  2742   2639   2663      1
  2743   2640   2641      1
  2744   2640   2664      1
  2745   2642   2643      1
  2746   2642   2646      1
  2747   2643   2644      1
  2748   2643   2665      1
  2749   2644   2645      1
  2750   2644   2666      1
  2751   2645   2646      1
  2752   2645   2647      1
  2753   2647   2667      1
  2754   2671   2672      1
  2755   2671   2677      1
  2756   2671   2684      1
  2757   2672   2673      1
  2758   2672   2690      1
  2759   2673   2674      1
  2760   2673   2691      1
  2761   2674   2675      1
  2762   2674   2676      1
  2763   2675   2678      1
  2764   2675   2692      1
  2765   2675   2693      1
  2766   2678   2679      1
  2767   2678   2682      1
  2768   2679   2680      1
  2769   2679   2694      1
  2770   2680   2681      1
  2771   2680   2695      1
  2772   2681   2683      1
  2773   2683   2696      1
  2774   2683   2697      1
  2775   2684   2688      1
  2776   2684   2698      1
  2777   2684   2699      1
  2778   2685   2686      1
  2779   2686   2687      1
  2780   2686   2700      1
  2781   2687   2688      1
  2782   2687   2701      1
  2783   2688   2689      1
  2784   2702   2703      1
  2785   2702   2708      1
  2786   2702   2715      1
  2787   2703   2704      1
  2788   2703   2721      1
  2789   2704   2705      1
  2790   2704   2722      1
  2791   2705   2706      1
  2792   2705   2707      1
  2793   2706   2709      1
  2794   2706   2723      1
  2795   2706   2724      1
  2796   2709   2710      1
  2797   2709   2713      1
  2798   2710   2711      1
  2799   2710   2725      1
  2800   2711   2712      1
  2801   2711   2726      1
  2802   2712   2713      1
  2803   2712   2714      1
  2804   2714   2727      1
  2805   2714   2728      1
  2806   2715   2719      1
  2807   2715   2729      1
  2808   2715   2730      1
  2809   2716   2717      1
  2810   2716   4228      1
  2811   2717   2718      1
  2812   2717   2731      1
  2813   2718   2719      1
  2814   2718   2732      1
  2815   2719   2720      1
  2816   2733   2734      1
  2817   2733   2737      1
  2818   2733   2738      1
  2819   2734   2735      1
  2820   2735   2736      1
  2821   2735   2744      1
  2822   2736   2737      1
  2823   2736   2751      1
  2824   2737   2752      1
  2825   2738   2745      1
  2826   2738   2753      1
  2827   2739   2740      1
  2828   2739   2743      1
  2829   2739   2744      1
  2830   2740   2741      1
  2831   2741   2742      1
  2832   2742   2743      1
  2833   2742   2754      1
  2834   2743   2755      1
  2835   2744   2756      1
  2836   2745   2746      1
  2837   2745   2749      1
  2838   2746   2747      1
  2839   2746   2757      1
  2840   2747   2748      1
  2841   2747   2758      1
  2842   2748   2749      1
  2843   2748   2750      1
  2844   2750   2759      1
  2845   2750   2760      1
  2846   2761   2762      1
  2847   2761   2765      1
  2848   2761   2766      1
  2849   2762   2763      1
  2850   2763   2764      1
  2851   2763   2772      1
  2852   2764   2765      1
  2853   2764   2779      1
  2854   2765   2780      1
  2855   2766   2773      1
  2856   2766   2781      1
  2857   2767   2768      1
  2858   2767   2771      1
  2859   2767   2772      1
  2860   2768   2952      1
  2861   2769   2770      1
  2862   2770   2771      1
  2863   2770   2782      1
  2864   2771   2783      1
  2865   2772   2784      1
  2866   2773   2774      1
  2867   2773   2777      1
  2868   2774   2775      1
  2869   2774   2785      1
  2870   2775   2776      1
  2871   2775   2786      1
  2872   2776   2777      1
  2873   2776   2778      1
  2874   2778   2787      1
  2875   2778   2788      1
  2876   2789   2793      1
  2877   2789   2794      1
  2878   2790   2791      1
  2879   2790   4237      1
  2880   2791   2792      1
  2881   2791   2795      1
  2882   2792   2793      1
  2883   2792   2796      1
  2884   2793   2797      1
  2885   2794   2798      1
  2886   2795   2799      1
  2887   2800   2801      1
  2888   2800   2804      1
  2889   2800   2805      1
  2890   2801   2802      1
  2891   2802   2803      1
  2892   2802   2806      1
  2893   2803   2804      1
  2894   2803   2807      1
  2895   2804   2808      1
  2896   2805   2809      1
  2897   2805   4531      1
  2898   2806   2810      1
  2899   2811   2812      1
  2900   2811   2818      1
  2901   2811   2821      1
  2902   2812   2813      1
  2903   2812   2847      1
  2904   2813   2814      1
  2905   2813   2848      1
  2906   2814   2819      1
  2907   2814   2822      1
  2908   2814   2824      1
  2909   2815   2816      1
  2910   2815   2819      1
  2911   2815   2823      1
  2912   2816   2817      1
  2913   2817   2818      1
  2914   2817   2820      1
  2915   2818   2819      1
  2916   2818   2849      1
  2917   2819   2850      1
  2918   2820   2828      1
  2919   2820   2851      1
  2920   2821   2839      1
  2921   2821   2852      1
  2922   2821   2853      1
  2923   2822   2840      1
  2924   2822   2854      1
  2925   2822   2855      1
  2926   2823   2831      1
  2927   2823   2856      1
  2928   2825   2826      1
  2929   2825   2829      1
  2930   2826   2827      1
  2931   2826   2857      1
  2932   2827   2828      1
  2933   2827   2858      1
  2934   2828   2829      1
  2935   2830   2831      1
  2936   2830   2834      1
  2937   2831   2832      1
  2938   2832   2833      1
  2939   2832   2859      1
  2940   2833   2834      1
  2941   2833   2860      1
  2942   2834   2846      1
  2943   2835   2836      1
  2944   2835   2839      1
  2945   2836   2837      1
  2946   2836   2845      1
  2947   2837   2838      1
  2948   2837   2861      1
  2949   2838   2839      1
  2950   2838   2862      1
  2951   2840   2841      1
  2952   2840   2844      1
  2953   2841   2842      1
  2954   2841   2863      1
  2955   2842   2843      1
  2956   2842   2864      1
  2957   2843   2844      1
  2958   2843   2884      1
  2959   2843   2915      1
  2960   2845   2865      1
  2961   2845   2866      1
  2962   2846   2867      1
  2963   2846   2868      1
  2964   2869   2870      1
  2965   2869   2876      1
  2966   2869   2879      1
  2967   2869   2882      1
  2968   2870   2871      1
  2969   2870   2905      1
  2970   2871   2872      1
  2971   2871   2906      1
  2972   2872   2877      1
  2973   2872   2880      1
  2974   2872   2882      1
  2975   2873   2874      1
  2976   2873   2877      1
  2977   2873   2881      1
  2978   2874   2875      1
  2979   2875   2876      1
  2980   2875   2878      1
  2981   2876   2877      1
  2982   2876   2907      1
  2983   2877   2908      1
  2984   2878   2886      1
  2985   2878   2909      1
  2986   2879   2897      1
  2987   2879   2910      1
  2988   2879   2911      1
  2989   2880   2898      1
  2990   2880   2912      1
  2991   2880   2913      1
  2992   2881   2889      1
  2993   2881   2914      1
  2994   2883   2884      1
  2995   2883   2887      1
  2996   2884   2885      1
  2997   2885   2886      1
  2998   2885   2916      1
  2999   2886   2887      1
  3000   2888   2889      1
  3001   2888   2892      1
  3002   2889   2890      1
  3003   2890   2891      1
  3004   2890   2917      1
  3005   2891   2892      1
  3006   2891   2918      1
  3007   2892   2904      1
  3008   2893   2894      1
  3009   2893   2897      1
  3010   2894   2895      1
  3011   2894   2903      1
  3012   2895   2896      1
  3013   2895   2919      1
  3014   2896   2897      1
  3015   2896   2920      1
  3016   2898   2899      1
  3017   2898   2902      1
  3018   2899   2900      1
  3019   2899   2921      1
  3020   2900   2901      1
  3021   2900   2922      1
  3022   2901   2902      1
  3023   2901   3876      1
  3024   2903   2923      1
  3025   2903   2924      1
  3026   2904   2925      1
  3027   2904   2926      1
  3028   2927   2928      1
  3029   2927   2934      1
  3030   2927   2937      1
  3031   2927   2940      1
  3032   2928   2929      1
  3033   2928   2963      1
  3034   2929   2930      1
  3035   2929   2964      1
  3036   2930   2935      1
  3037   2930   2938      1
  3038   2931   2932      1
  3039   2931   2935      1
  3040   2931   2939      1
  3041   2932   2933      1
  3042   2933   2934      1
  3043   2933   2936      1
  3044   2934   2935      1
  3045   2934   2965      1
  3046   2935   2966      1
  3047   2936   2944      1
  3048   2936   2967      1
  3049   2937   2955      1
  3050   2937   2968      1
  3051   2937   2969      1
  3052   2938   2956      1
  3053   2938   2971      1
  3054   2939   2947      1
  3055   2939   2972      1
  3056   2940   3041      1
  3057   2941   2942      1
  3058   2941   2945      1
  3059   2941   2962      1
  3060   2942   2943      1
  3061   2943   2944      1
  3062   2944   2945      1
  3063   2946   2947      1
  3064   2946   2970      1
  3065   2947   2948      1
  3066   2948   2949      1
  3067   2948   2975      1
  3068   2949   2950      1
  3069   2949   2976      1
  3070   2950   4316      1
  3071   2951   2955      1
  3072   2952   2953      1
  3073   2953   2954      1
  3074   2953   2977      1
  3075   2954   2955      1
  3076   2954   2978      1
  3077   2956   2957      1
  3078   2956   3020      1
  3079   2957   2979      1
  3080   2957   3020      1
  3081   2958   2959      1
  3082   2958   2999      1
  3083   2958   3020      1
  3084   2959   2960      1
  3085   2959   2961      1
  3086   2960   3042      1
  3087   2961   2981      1
  3088   2961   2982      1
  3089   2962   2983      1
  3090   2962   2984      1
  3091   2980   2998      1
  3092   2985   2986      1
  3093   2985   2992      1
  3094   2985   2995      1
  3095   2985   2998      1
  3096   2986   2987      1
  3097   2986   3021      1
  3098   2987   2988      1
  3099   2987   3022      1
  3100   2988   2993      1
  3101   2988   2996      1
  3102   2989   2990      1
  3103   2989   2993      1
  3104   2989   2997      1
  3105   2990   2991      1
  3106   2991   2992      1
  3107   2991   2994      1
  3108   2992   2993      1
  3109   2992   3023      1
  3110   2993   3024      1
  3111   2994   3002      1
  3112   2994   3025      1
  3113   2995   3013      1
  3114   2995   3026      1
  3115   2995   3027      1
  3116   2996   3014      1
  3117   2996   3028      1
  3118   2996   3029      1
  3119   2997   3005      1
  3120   2997   3030      1
  3121   2999   3000      1
  3122   2999   3003      1
  3123   3000   3001      1
  3124   3000   3031      1
  3125   3001   3002      1
  3126   3001   3032      1
  3127   3002   3003      1
  3128   3004   3005      1
  3129   3004   3008      1
  3130   3005   3006      1
  3131   3006   3007      1
  3132   3006   3033      1
  3133   3007   3008      1
  3134   3007   3034      1
  3135   3009   3010      1
  3136   3009   3013      1
  3137   3010   3011      1
  3138   3011   3012      1
  3139   3011   3035      1
  3140   3012   3013      1
  3141   3012   3036      1
  3142   3014   3015      1
  3143   3014   3018      1
  3144   3015   3016      1
  3145   3015   3037      1
  3146   3016   3017      1
  3147   3016   3038      1
  3148   3017   3018      1
  3149   3017   3019      1
  3150   3019   3039      1
  3151   3019   3040      1
  3152   3043   3044      1
  3153   3043   3049      1
  3154   3043   3056      1
  3155   3044   3045      1
  3156   3044   3062      1
  3157   3045   3046      1
  3158   3045   3063      1
  3159   3046   3047      1
  3160   3046   3048      1
  3161   3047   3050      1
  3162   3047   3064      1
  3163   3047   3065      1
  3164   3048   3929      1
  3165   3050   3051      1
  3166   3051   3052      1
  3167   3051   3066      1
  3168   3052   3067      1
  3169   3053   3054      1
  3170   3053   3055      1
  3171   3055   3068      1
  3172   3055   3069      1
  3173   3056   3060      1
  3174   3056   3070      1
  3175   3056   3071      1
  3176   3057   3058      1
  3177   3057   3061      1
  3178   3058   3059      1
  3179   3058   3072      1
  3180   3059   3060      1
  3181   3059   3073      1
  3182   3060   3061      1
  3183   3074   3075      1
  3184   3074   3080      1
  3185   3074   3087      1
  3186   3075   3076      1
  3187   3075   3093      1
  3188   3076   3077      1
  3189   3076   3094      1
  3190   3077   3078      1
  3191   3077   3079      1
  3192   3078   3081      1
  3193   3078   3095      1
  3194   3078   3096      1
  3195   3081   3082      1
  3196   3081   3085      1
  3197   3082   3083      1
  3198   3082   3097      1
  3199   3083   3084      1
  3200   3083   3098      1
  3201   3084   3085      1
  3202   3084   3086      1
  3203   3086   3099      1
  3204   3086   3100      1
  3205   3087   3091      1
  3206   3087   3101      1
  3207   3087   3102      1
  3208   3088   3089      1
  3209   3089   3090      1
  3210   3089   3103      1
  3211   3090   3091      1
  3212   3090   3104      1
  3213   3091   3092      1
  3214   3105   3106      1
  3215   3105   3109      1
  3216   3105   3110      1
  3217   3106   3107      1
  3218   3107   3108      1
  3219   3107   3116      1
  3220   3108   3109      1
  3221   3108   3123      1
  3222   3109   3124      1
  3223   3110   3117      1
  3224   3110   3125      1
  3225   3111   3115      1
  3226   3111   3116      1
  3227   3113   3114      1
  3228   3114   3115      1
  3229   3114   3126      1
  3230   3115   3127      1
  3231   3117   3121      1
  3232   3118   3119      1
  3233   3118   3129      1
  3234   3119   3120      1
  3235   3119   3130      1
  3236   3122   3132      1
  3237   3133   3134      1
  3238   3133   3137      1
  3239   3133   3138      1
  3240   3134   3135      1
  3241   3135   3136      1
  3242   3135   3144      1
  3243   3136   3137      1
  3244   3136   3151      1
  3245   3137   3152      1
  3246   3138   3145      1
  3247   3138   3153      1
  3248   3139   3144      1
  3249   3141   3142      1
  3250   3142   3143      1
  3251   3142   3154      1
  3252   3143   3155      1
  3253   3144   3156      1
  3254   3145   3146      1
  3255   3145   3149      1
  3256   3146   3147      1
  3257   3146   3157      1
  3258   3147   3148      1
  3259   3147   3158      1
  3260   3148   3149      1
  3261   3148   3150      1
  3262   3150   3159      1
  3263   3161   3162      1
  3264   3161   3165      1
  3265   3161   3166      1
  3266   3163   3164      1
  3267   3163   3167      1
  3268   3164   3165      1
  3269   3164   3168      1
  3270   3165   3169      1
  3271   3166   3170      1
  3272   3167   3171      1
  3273   3172   3173      1
  3274   3172   3176      1
  3275   3172   3177      1
  3276   3173   3174      1
  3277   3174   3175      1
  3278   3174   3178      1
  3279   3175   3176      1
  3280   3175   3179      1
  3281   3176   3180      1
  3282   3177   3181      1
  3283   3178   3182      1
  3284   3183   3184      1
  3285   3183   3187      1
  3286   3183   3188      1
  3287   3184   3185      1
  3288   3185   3186      1
  3289   3185   3189      1
  3290   3186   3187      1
  3291   3186   3190      1
  3292   3187   3191      1
  3293   3188   3192      1
  3294   3188   3734      1
  3295   3189   3193      1
  3296   3194   3195      1
  3297   3194   3198      1
  3298   3195   3196      1
  3299   3196   3197      1
  3300   3196   3200      1
  3301   3197   3198      1
  3302   3197   3201      1
  3303   3199   3203      1
  3304   3200   3204      1
  3305   3205   3206      1
  3306   3205   3212      1
  3307   3205   3215      1
  3308   3205   3218      1
  3309   3206   3207      1
  3310   3206   3241      1
  3311   3207   3208      1
  3312   3207   3242      1
  3313   3208   3213      1
  3314   3208   3216      1
  3315   3208   3218      1
  3316   3209   3210      1
  3317   3209   3213      1
  3318   3209   3217      1
  3319   3210   3211      1
  3320   3211   3212      1
  3321   3211   3214      1
  3322   3212   3213      1
  3323   3212   3243      1
  3324   3213   3244      1
  3325   3214   3222      1
  3326   3214   3245      1
  3327   3215   3233      1
  3328   3215   3246      1
  3329   3215   3247      1
  3330   3216   3234      1
  3331   3216   3248      1
  3332   3216   3249      1
  3333   3217   3225      1
  3334   3217   3250      1
  3335   3219   3220      1
  3336   3219   3223      1
  3337   3220   3221      1
  3338   3220   3251      1
  3339   3221   3222      1
  3340   3221   3252      1
  3341   3222   3223      1
  3342   3224   3225      1
  3343   3224   3228      1
  3344   3225   3226      1
  3345   3226   3227      1
  3346   3226   3253      1
  3347   3227   3228      1
  3348   3227   3254      1
  3349   3228   3240      1
  3350   3229   3230      1
  3351   3229   3233      1
  3352   3230   3231      1
  3353   3230   3239      1
  3354   3231   3232      1
  3355   3231   3255      1
  3356   3232   3233      1
  3357   3232   3256      1
  3358   3234   3235      1
  3359   3234   3238      1
  3360   3235   3236      1
  3361   3235   3257      1
  3362   3236   3237      1
  3363   3236   3258      1
  3364   3237   3238      1
  3365   3237   3278      1
  3366   3237   3309      1
  3367   3239   3259      1
  3368   3239   3260      1
  3369   3240   3261      1
  3370   3240   3262      1
  3371   3263   3264      1
  3372   3263   3270      1
  3373   3263   3273      1
  3374   3263   3276      1
  3375   3264   3265      1
  3376   3264   3299      1
  3377   3265   3266      1
  3378   3265   3300      1
  3379   3266   3271      1
  3380   3266   3274      1
  3381   3266   3276      1
  3382   3267   3268      1
  3383   3267   3271      1
  3384   3267   3275      1
  3385   3268   3269      1
  3386   3269   3270      1
  3387   3269   3272      1
  3388   3270   3271      1
  3389   3270   3301      1
  3390   3271   3302      1
  3391   3272   3280      1
  3392   3272   3303      1
  3393   3273   3291      1
  3394   3273   3304      1
  3395   3273   3305      1
  3396   3274   3292      1
  3397   3274   3306      1
  3398   3274   3307      1
  3399   3275   3283      1
  3400   3275   3308      1
  3401   3277   3278      1
  3402   3277   3281      1
  3403   3278   3279      1
  3404   3279   3280      1
  3405   3279   3310      1
  3406   3280   3281      1
  3407   3282   3283      1
  3408   3282   3286      1
  3409   3283   3284      1
  3410   3285   3312      1
  3411   3286   3298      1
  3412   3287   3288      1
  3413   3287   3291      1
  3414   3288   3289      1
  3415   3288   3297      1
  3416   3289   3290      1
  3417   3289   3313      1
  3418   3290   3291      1
  3419   3290   3314      1
  3420   3292   3293      1
  3421   3292   3296      1
  3422   3293   3294      1
  3423   3293   3315      1
  3424   3294   3316      1
  3425   3297   3317      1
  3426   3297   3318      1
  3427   3298   3320      1
  3428   3321   3322      1
  3429   3321   3328      1
  3430   3321   3331      1
  3431   3321   3334      1
  3432   3322   3323      1
  3433   3322   3357      1
  3434   3323   3324      1
  3435   3324   3329      1
  3436   3324   3332      1
  3437   3325   3326      1
  3438   3325   3329      1
  3439   3325   3333      1
  3440   3326   3327      1
  3441   3327   3328      1
  3442   3327   3330      1
  3443   3328   3329      1
  3444   3328   3359      1
  3445   3329   3360      1
  3446   3330   3338      1
  3447   3330   3361      1
  3448   3331   3349      1
  3449   3331   3362      1
  3450   3331   3363      1
  3451   3332   3350      1
  3452   3332   3365      1
  3453   3333   3341      1
  3454   3333   3366      1
  3455   3334   3435      1
  3456   3335   3336      1
  3457   3335   3339      1
  3458   3335   3356      1
  3459   3336   3337      1
  3460   3336   3367      1
  3461   3337   3338      1
  3462   3337   3368      1
  3463   3338   3339      1
  3464   3340   3341      1
  3465   3340   3364      1
  3466   3341   3342      1
  3467   3342   3343      1
  3468   3342   3369      1
  3469   3343   3344      1
  3470   3343   3370      1
  3471   3345   3346      1
  3472   3345   3349      1
  3473   3346   3347      1
  3474   3347   3348      1
  3475   3347   3371      1
  3476   3348   3349      1
  3477   3348   3372      1
  3478   3350   3351      1
  3479   3351   3373      1
  3480   3351   3414      1
  3481   3352   3353      1
  3482   3352   3393      1
  3483   3353   3354      1
  3484   3353   3355      1
  3485   3355   3375      1
  3486   3355   3376      1
  3487   3356   3377      1
  3488   3356   3378      1
  3489   3374   3392      1
  3490   3379   3380      1
  3491   3379   3386      1
  3492   3379   3389      1
  3493   3380   3381      1
  3494   3380   3415      1
  3495   3381   3382      1
  3496   3381   3416      1
  3497   3382   3387      1
  3498   3383   3384      1
  3499   3383   3387      1
  3500   3383   3391      1
  3501   3384   3385      1
  3502   3385   3386      1
  3503   3386   3387      1
  3504   3386   3417      1
  3505   3387   3418      1
  3506   3388   3396      1
  3507   3388   3419      1
  3508   3389   3421      1
  3509   3390   3408      1
  3510   3390   3423      1
  3511   3391   3399      1
  3512   3391   3424      1
  3513   3393   3394      1
  3514   3393   3397      1
  3515   3394   3395      1
  3516   3394   3425      1
  3517   3395   3396      1
  3518   3395   3426      1
  3519   3396   3397      1
  3520   3398   3399      1
  3521   3398   3402      1
  3522   3399   3400      1
  3523   3400   3401      1
  3524   3400   3427      1
  3525   3401   3402      1
  3526   3401   3428      1
  3527   3404   3405      1
  3528   3405   3406      1
  3529   3405   3429      1
  3530   3406   3407      1
  3531   3406   3430      1
  3532   3408   3412      1
  3533   3409   3410      1
  3534   3409   3431      1
  3535   3410   3432      1
  3536   3411   3412      1
  3537   3411   3413      1
  3538   3413   3433      1
  3539   3413   3434      1
  3540   3437   3438      1
  3541   3437   3443      1
  3542   3437   3450      1
  3543   3438   3439      1
  3544   3438   3456      1
  3545   3439   3440      1
  3546   3439   3457      1
  3547   3440   3441      1
  3548   3440   3442      1
  3549   3441   3444      1
  3550   3441   3458      1
  3551   3441   3459      1
  3552   3444   3445      1
  3553   3444   3448      1
  3554   3445   3446      1
  3555   3445   3460      1
  3556   3446   3447      1
  3557   3446   3461      1
  3558   3447   3448      1
  3559   3447   3449      1
  3560   3449   3462      1
  3561   3449   3463      1
  3562   3450   3454      1
  3563   3450   3464      1
  3564   3450   3465      1
  3565   3451   3452      1
  3566   3451   3455      1
  3567   3452   3453      1
  3568   3452   3466      1
  3569   3453   3454      1
  3570   3453   3467      1
  3571   3454   3455      1
  3572   3468   3469      1
  3573   3468   3474      1
  3574   3468   3481      1
  3575   3469   3470      1
  3576   3469   3487      1
  3577   3470   3471      1
  3578   3470   3488      1
  3579   3471   3472      1
  3580   3471   3473      1
  3581   3472   3475      1
  3582   3472   3489      1
  3583   3472   3490      1
  3584   3475   3476      1
  3585   3475   3479      1
  3586   3476   3477      1
  3587   3476   3491      1
  3588   3477   3478      1
  3589   3477   3492      1
  3590   3478   3479      1
  3591   3478   3480      1
  3592   3480   3493      1
  3593   3480   3494      1
  3594   3481   3485      1
  3595   3481   3495      1
  3596   3481   3496      1
  3597   3482   3483      1
  3598   3482   3507      1
  3599   3483   3484      1
  3600   3483   3497      1
  3601   3484   3485      1
  3602   3484   3498      1
  3603   3485   3486      1
  3604   3486   4290      1
  3605   3499   3500      1
  3606   3499   3503      1
  3607   3499   3504      1
  3608   3500   3501      1
  3609   3501   3502      1
  3610   3502   3503      1
  3611   3502   3517      1
  3612   3503   3518      1
  3613   3504   3511      1
  3614   3504   3519      1
  3615   3505   3506      1
  3616   3505   3510      1
  3617   3508   3509      1
  3618   3508   3520      1
  3619   3509   3521      1
  3620   3510   3522      1
  3621   3511   3512      1
  3622   3511   3515      1
  3623   3512   3513      1
  3624   3512   3523      1
  3625   3513   3514      1
  3626   3513   3524      1
  3627   3514   3515      1
  3628   3514   3516      1
  3629   3516   3525      1
  3630   3516   3526      1
  3631   3527   3528      1
  3632   3527   3531      1
  3633   3527   3532      1
  3634   3528   3529      1
  3635   3529   3530      1
  3636   3529   3538      1
  3637   3530   3531      1
  3638   3530   3545      1
  3639   3531   3546      1
  3640   3532   3539      1
  3641   3533   3534      1
  3642   3533   3537      1
  3643   3533   3538      1
  3644   3534   3535      1
  3645   3535   3536      1
  3646   3536   3537      1
  3647   3536   3548      1
  3648   3537   3549      1
  3649   3538   3550      1
  3650   3539   3543      1
  3651   3540   3551      1
  3652   3541   3542      1
  3653   3542   3543      1
  3654   3542   3544      1
  3655   3544   3553      1
  3656   3544   3554      1
  3657   3555   3556      1
  3658   3555   3559      1
  3659   3555   3560      1
  3660   3556   3557      1
  3661   3557   3558      1
  3662   3557   3561      1
  3663   3558   3559      1
  3664   3558   3562      1
  3665   3559   3563      1
  3666   3560   3564      1
  3667   3561   3565      1
  3668   3566   3570      1
  3669   3566   3571      1
  3670   3568   3569      1
  3671   3568   3572      1
  3672   3569   3570      1
  3673   3569   3573      1
  3674   3570   3574      1
  3675   3571   3575      1
  3676   3572   3576      1
  3677   3577   3578      1
  3678   3577   3581      1
  3679   3577   3582      1
  3680   3578   3579      1
  3681   3579   3580      1
  3682   3579   3583      1
  3683   3580   3581      1
  3684   3580   3584      1
  3685   3581   3585      1
  3686   3582   3586      1
  3687   3583   3587      1
  3688   3588   3589      1
  3689   3588   3592      1
  3690   3588   3593      1
  3691   3589   3590      1
  3692   3590   3591      1
  3693   3590   3594      1
  3694   3591   3592      1
  3695   3591   3595      1
  3696   3592   3596      1
  3697   3593   3597      1
  3698   3599   3600      1
  3699   3599   3606      1
  3700   3599   3609      1
  3701   3599   3612      1
  3702   3600   3601      1
  3703   3600   3635      1
  3704   3601   3602      1
  3705   3601   3636      1
  3706   3602   3607      1
  3707   3602   3610      1
  3708   3602   3612      1
  3709   3603   3604      1
  3710   3603   3607      1
  3711   3603   3611      1
  3712   3604   3605      1
  3713   3605   3606      1
  3714   3605   3608      1
  3715   3606   3607      1
  3716   3606   3637      1
  3717   3607   3638      1
  3718   3608   3616      1
  3719   3608   3639      1
  3720   3609   3627      1
  3721   3609   3640      1
  3722   3609   3641      1
  3723   3610   3628      1
  3724   3610   3642      1
  3725   3610   3643      1
  3726   3611   3619      1
  3727   3611   3644      1
  3728   3613   3614      1
  3729   3613   4423      1
  3730   3614   3615      1
  3731   3614   3645      1
  3732   3615   3616      1
  3733   3615   3646      1
  3734   3616   3617      1
  3735   3617   4422      1
  3736   3618   3619      1
  3737   3618   3622      1
  3738   3619   3620      1
  3739   3620   3621      1
  3740   3620   3647      1
  3741   3621   3622      1
  3742   3621   3648      1
  3743   3622   3634      1
  3744   3623   3624      1
  3745   3623   3627      1
  3746   3624   3625      1
  3747   3624   3633      1
  3748   3625   3626      1
  3749   3625   3649      1
  3750   3626   3627      1
  3751   3626   3650      1
  3752   3628   3629      1
  3753   3628   3632      1
  3754   3629   3630      1
  3755   3629   3651      1
  3756   3630   3631      1
  3757   3630   3652      1
  3758   3631   3632      1
  3759   3631   3672      1
  3760   3631   3703      1
  3761   3633   3653      1
  3762   3633   3654      1
  3763   3634   3655      1
  3764   3634   3656      1
  3765   3657   3658      1
  3766   3657   3664      1
  3767   3657   3667      1
  3768   3657   3670      1
  3769   3658   3659      1
  3770   3658   3693      1
  3771   3659   3660      1
  3772   3659   3694      1
  3773   3660   3665      1
  3774   3660   3668      1
  3775   3660   3670      1
  3776   3661   3662      1
  3777   3661   3665      1
  3778   3661   3669      1
  3779   3662   3663      1
  3780   3663   3664      1
  3781   3663   3666      1
  3782   3664   3665      1
  3783   3664   3695      1
  3784   3665   3696      1
  3785   3666   3674      1
  3786   3666   3697      1
  3787   3667   3685      1
  3788   3667   3698      1
  3789   3667   3699      1
  3790   3668   3686      1
  3791   3668   3700      1
  3792   3668   3701      1
  3793   3669   3677      1
  3794   3669   3702      1
  3795   3671   3672      1
  3796   3671   3675      1
  3797   3672   3673      1
  3798   3673   3674      1
  3799   3673   3704      1
  3800   3674   3675      1
  3801   3676   3677      1
  3802   3676   3680      1
  3803   3677   3678      1
  3804   3678   3679      1
  3805   3678   3705      1
  3806   3679   3680      1
  3807   3679   3706      1
  3808   3680   3692      1
  3809   3681   3682      1
  3810   3681   3685      1
  3811   3682   3683      1
  3812   3682   3691      1
  3813   3683   3684      1
  3814   3683   3707      1
  3815   3684   3685      1
  3816   3684   3708      1
  3817   3686   3687      1
  3818   3686   3690      1
  3819   3687   3688      1
  3820   3687   3709      1
  3821   3688   3689      1
  3822   3688   3710      1
  3823   3691   3711      1
  3824   3691   3712      1
  3825   3692   3713      1
  3826   3692   3714      1
  3827   3715   3716      1
  3828   3715   3722      1
  3829   3715   3725      1
  3830   3715   3728      1
  3831   3716   3717      1
  3832   3716   3751      1
  3833   3717   3718      1
  3834   3717   3752      1
  3835   3718   3723      1
  3836   3718   3726      1
  3837   3719   3720      1
  3838   3719   3723      1
  3839   3719   3727      1
  3840   3720   3721      1
  3841   3721   3722      1
  3842   3721   3724      1
  3843   3722   3723      1
  3844   3722   3753      1
  3845   3723   3754      1
  3846   3724   3732      1
  3847   3724   3755      1
  3848   3725   3743      1
  3849   3725   3756      1
  3850   3725   3757      1
  3851   3726   3744      1
  3852   3726   3758      1
  3853   3726   3759      1
  3854   3727   3735      1
  3855   3727   3760      1
  3856   3728   3829      1
  3857   3729   3730      1
  3858   3729   3733      1
  3859   3729   3750      1
  3860   3730   3731      1
  3861   3730   3761      1
  3862   3731   3732      1
  3863   3731   3762      1
  3864   3732   3733      1
  3865   3734   3735      1
  3866   3735   3736      1
  3867   3736   3737      1
  3868   3736   3763      1
  3869   3737   3738      1
  3870   3737   3764      1
  3871   3739   3740      1
  3872   3739   3743      1
  3873   3740   3741      1
  3874   3741   3742      1
  3875   3741   3765      1
  3876   3742   3743      1
  3877   3742   3766      1
  3878   3744   3745      1
  3879   3744   3808      1
  3880   3745   3767      1
  3881   3745   3808      1
  3882   3746   3747      1
  3883   3746   3787      1
  3884   3746   3808      1
  3885   3747   3748      1
  3886   3747   3749      1
  3887   3748   3830      1
  3888   3749   3769      1
  3889   3749   3770      1
  3890   3750   3771      1
  3891   3750   3772      1
  3892   3768   3786      1
  3893   3773   3774      1
  3894   3773   3780      1
  3895   3773   3783      1
  3896   3774   3775      1
  3897   3774   3809      1
  3898   3775   3776      1
  3899   3775   3810      1
  3900   3776   3781      1
  3901   3776   3784      1
  3902   3777   3778      1
  3903   3777   3781      1
  3904   3777   3785      1
  3905   3778   3779      1
  3906   3779   3780      1
  3907   3779   3782      1
  3908   3780   3781      1
  3909   3780   3811      1
  3910   3781   3812      1
  3911   3782   3790      1
  3912   3782   3813      1
  3913   3783   3801      1
  3914   3783   3814      1
  3915   3783   3815      1
  3916   3784   3802      1
  3917   3784   3816      1
  3918   3784   3817      1
  3919   3785   3793      1
  3920   3785   3818      1
  3921   3786   3800      1
  3922   3787   3788      1
  3923   3787   3791      1
  3924   3788   3789      1
  3925   3788   3819      1
  3926   3789   3790      1
  3927   3789   3820      1
  3928   3790   3791      1
  3929   3792   3793      1
  3930   3792   3796      1
  3931   3793   3794      1
  3932   3794   3795      1
  3933   3794   3821      1
  3934   3795   3796      1
  3935   3795   3822      1
  3936   3797   3801      1
  3937   3798   3799      1
  3938   3799   3800      1
  3939   3799   3823      1
  3940   3800   3801      1
  3941   3800   3824      1
  3942   3802   3803      1
  3943   3802   3806      1
  3944   3803   3804      1
  3945   3803   3825      1
  3946   3804   3805      1
  3947   3804   3826      1
  3948   3805   3806      1
  3949   3805   3807      1
  3950   3807   3827      1
  3951   3807   3828      1
  3952   3831   3832      1
  3953   3831   3837      1
  3954   3831   3844      1
  3955   3832   3833      1
  3956   3832   3850      1
  3957   3833   3834      1
  3958   3833   3851      1
  3959   3834   3835      1
  3960   3834   3836      1
  3961   3835   3838      1
  3962   3835   3852      1
  3963   3835   3853      1
  3964   3838   3839      1
  3965   3838   3842      1
  3966   3839   3840      1
  3967   3839   3854      1
  3968   3840   3841      1
  3969   3840   3855      1
  3970   3841   3842      1
  3971   3841   3843      1
  3972   3843   3856      1
  3973   3843   3857      1
  3974   3844   3848      1
  3975   3844   3858      1
  3976   3844   3859      1
  3977   3845   3846      1
  3978   3846   3847      1
  3979   3846   3860      1
  3980   3847   3848      1
  3981   3847   3861      1
  3982   3848   3849      1
  3983   3862   3863      1
  3984   3862   3868      1
  3985   3862   3875      1
  3986   3863   3864      1
  3987   3863   3881      1
  3988   3864   3865      1
  3989   3864   3882      1
  3990   3865   3866      1
  3991   3865   3867      1
  3992   3866   3869      1
  3993   3866   3883      1
  3994   3866   3884      1
  3995   3869   3870      1
  3996   3869   3873      1
  3997   3870   3871      1
  3998   3870   3885      1
  3999   3871   3872      1
  4000   3871   3886      1
  4001   3872   3873      1
  4002   3872   3874      1
  4003   3874   3887      1
  4004   3874   3888      1
  4005   3875   3879      1
  4006   3875   3889      1
  4007   3875   3890      1
  4008   3876   3877      1
  4009   3877   3878      1
  4010   3877   3891      1
  4011   3878   3879      1
  4012   3878   3892      1
  4013   3879   3880      1
  4014   3893   3894      1
  4015   3893   3897      1
  4016   3893   3898      1
  4017   3894   3895      1
  4018   3895   3896      1
  4019   3895   3904      1
  4020   3896   3897      1
  4021   3896   3911      1
  4022   3897   3912      1
  4023   3898   3905      1
  4024   3898   3913      1
  4025   3899   3900      1
  4026   3899   3903      1
  4027   3899   3904      1
  4028   3900   3901      1
  4029   3901   3902      1
  4030   3902   3903      1
  4031   3902   3914      1
  4032   3903   3915      1
  4033   3904   3916      1
  4034   3905   3906      1
  4035   3905   3909      1
  4036   3906   3907      1
  4037   3906   3917      1
  4038   3907   3908      1
  4039   3907   3918      1
  4040   3908   3909      1
  4041   3908   3910      1
  4042   3910   3919      1
  4043   3910   3920      1
  4044   3921   3925      1
  4045   3921   3926      1
  4046   3922   3923      1
  4047   3923   3924      1
  4048   3923   3932      1
  4049   3924   3939      1
  4050   3925   3940      1
  4051   3926   3933      1
  4052   3926   3941      1
  4053   3927   3928      1
  4054   3927   3931      1
  4055   3927   3932      1
  4056   3928   4191      1
  4057   3929   3930      1
  4058   3930   3931      1
  4059   3930   3942      1
  4060   3931   3943      1
  4061   3932   3944      1
  4062   3933   3937      1
  4063   3934   3935      1
  4064   3934   3945      1
  4065   3935   3946      1
  4066   3936   3937      1
  4067   3938   3947      1
  4068   3949   3950      1
  4069   3949   3953      1
  4070   3949   3954      1
  4071   3950   3951      1
  4072   3951   3952      1
  4073   3952   3953      1
  4074   3952   3956      1
  4075   3953   3957      1
  4076   3954   3958      1
  4077   3955   3959      1
  4078   3960   3961      1
  4079   3960   3967      1
  4080   3961   3996      1
  4081   3962   3963      1
  4082   3962   3997      1
  4083   3964   3968      1
  4084   3966   3967      1
  4085   3966   3969      1
  4086   3967   3968      1
  4087   3967   3998      1
  4088   3969   3977      1
  4089   3970   3988      1
  4090   3970   4001      1
  4091   3971   3989      1
  4092   3971   4004      1
  4093   3972   3980      1
  4094   3974   3975      1
  4095   3974   3978      1
  4096   3975   3976      1
  4097   3975   4006      1
  4098   3976   3977      1
  4099   3976   4007      1
  4100   3977   3978      1
  4101   3979   3980      1
  4102   3979   3983      1
  4103   3980   3981      1
  4104   3981   3982      1
  4105   3981   4008      1
  4106   3982   3983      1
  4107   3982   4009      1
  4108   3983   3995      1
  4109   3984   3985      1
  4110   3984   3988      1
  4111   3985   3986      1
  4112   3986   3987      1
  4113   3987   3988      1
  4114   3989   3993      1
  4115   3990   3991      1
  4116   3990   4012      1
  4117   3991   4013      1
  4118   3992   3993      1
  4119   3992   4064      1
  4120   3994   4014      1
  4121   3994   4015      1
  4122   3995   4016      1
  4123   3995   4017      1
  4124   4018   4019      1
  4125   4018   4028      1
  4126   4019   4020      1
  4127   4019   4054      1
  4128   4020   4055      1
  4129   4021   4026      1
  4130   4021   4029      1
  4131   4021   4031      1
  4132   4022   4023      1
  4133   4022   4026      1
  4134   4022   4030      1
  4135   4023   4024      1
  4136   4024   4025      1
  4137   4024   4027      1
  4138   4025   4026      1
  4139   4025   4056      1
  4140   4026   4057      1
  4141   4027   4035      1
  4142   4027   4058      1
  4143   4028   4046      1
  4144   4028   4059      1
  4145   4028   4060      1
  4146   4029   4047      1
  4147   4029   4061      1
  4148   4029   4062      1
  4149   4030   4038      1
  4150   4030   4063      1
  4151   4032   4033      1
  4152   4033   4034      1
  4153   4034   4065      1
  4154   4035   4036      1
  4155   4037   4038      1
  4156   4037   4041      1
  4157   4038   4039      1
  4158   4039   4040      1
  4159   4039   4066      1
  4160   4040   4041      1
  4161   4040   4067      1
  4162   4041   4053      1
  4163   4042   4043      1
  4164   4042   4046      1
  4165   4043   4044      1
  4166   4043   4052      1
  4167   4044   4045      1
  4168   4044   4068      1
  4169   4045   4046      1
  4170   4045   4069      1
  4171   4047   4048      1
  4172   4047   4051      1
  4173   4048   4049      1
  4174   4048   4070      1
  4175   4049   4050      1
  4176   4049   4071      1
  4177   4052   4072      1
  4178   4052   4073      1
  4179   4053   4074      1
  4180   4053   4075      1
  4181   4076   4077      1
  4182   4076   4083      1
  4183   4076   4086      1
  4184   4076   4089      1
  4185   4077   4112      1
  4186   4078   4079      1
  4187   4078   4113      1
  4188   4079   4087      1
  4189   4080   4081      1
  4190   4080   4084      1
  4191   4081   4082      1
  4192   4082   4083      1
  4193   4082   4085      1
  4194   4083   4084      1
  4195   4083   4114      1
  4196   4085   4093      1
  4197   4085   4116      1
  4198   4086   4104      1
  4199   4086   4117      1
  4200   4086   4118      1
  4201   4087   4105      1
  4202   4087   4120      1
  4203   4088   4096      1
  4204   4088   4121      1
  4205   4089   4190      1
  4206   4090   4091      1
  4207   4090   4094      1
  4208   4090   4111      1
  4209   4091   4092      1
  4210   4091   4122      1
  4211   4092   4093      1
  4212   4092   4123      1
  4213   4093   4094      1
  4214   4095   4096      1
  4215   4095   4119      1
  4216   4096   4097      1
  4217   4097   4098      1
  4218   4097   4124      1
  4219   4098   4099      1
  4220   4098   4125      1
  4221   4100   4104      1
  4222   4102   4103      1
  4223   4103   4104      1
  4224   4103   4127      1
  4225   4105   4106      1
  4226   4105   4109      1
  4227   4105   4169      1
  4228   4106   4128      1
  4229   4106   4169      1
  4230   4107   4108      1
  4231   4107   4148      1
  4232   4107   4169      1
  4233   4108   4109      1
  4234   4108   4110      1
  4235   4110   4130      1
  4236   4110   4131      1
  4237   4111   4132      1
  4238   4111   4133      1
  4239   4129   4147      1
  4240   4134   4135      1
  4241   4134   4141      1
  4242   4134   4144      1
  4243   4134   4147      1
  4244   4135   4170      1
  4245   4136   4137      1
  4246   4136   4171      1
  4247   4137   4142      1
  4248   4137   4145      1
  4249   4138   4142      1
  4250   4138   4146      1
  4251   4139   4140      1
  4252   4140   4141      1
  4253   4140   4143      1
  4254   4141   4172      1
  4255   4142   4173      1
  4256   4143   4151      1
  4257   4143   4174      1
  4258   4144   4162      1
  4259   4144   4175      1
  4260   4144   4176      1
  4261   4145   4163      1
  4262   4145   4177      1
  4263   4145   4178      1
  4264   4146   4154      1
  4265   4146   4179      1
  4266   4148   4149      1
  4267   4148   4152      1
  4268   4149   4150      1
  4269   4149   4180      1
  4270   4150   4151      1
  4271   4150   4181      1
  4272   4151   4152      1
  4273   4153   4154      1
  4274   4153   4157      1
  4275   4154   4155      1
  4276   4155   4156      1
  4277   4155   4182      1
  4278   4156   4157      1
  4279   4156   4183      1
  4280   4158   4162      1
  4281   4159   4160      1
  4282   4160   4161      1
  4283   4160   4184      1
  4284   4161   4185      1
  4285   4163   4164      1
  4286   4163   4167      1
  4287   4164   4186      1
  4288   4165   4166      1
  4289   4166   4168      1
  4290   4168   4188      1
  4291   4168   4189      1
  4292   4192   4193      1
  4293   4192   4198      1
  4294   4192   4205      1
  4295   4193   4194      1
  4296   4193   4211      1
  4297   4194   4195      1
  4298   4194   4212      1
  4299   4195   4196      1
  4300   4195   4197      1
  4301   4196   4199      1
  4302   4196   4213      1
  4303   4196   4214      1
  4304   4199   4200      1
  4305   4199   4203      1
  4306   4200   4201      1
  4307   4200   4215      1
  4308   4201   4202      1
  4309   4201   4216      1
  4310   4202   4203      1
  4311   4202   4204      1
  4312   4204   4217      1
  4313   4204   4218      1
  4314   4205   4209      1
  4315   4205   4219      1
  4316   4205   4220      1
  4317   4206   4207      1
  4318   4207   4208      1
  4319   4207   4221      1
  4320   4208   4209      1
  4321   4208   4222      1
  4322   4209   4210      1
  4323   4223   4224      1
  4324   4223   4229      1
  4325   4223   4236      1
  4326   4224   4225      1
  4327   4224   4242      1
  4328   4225   4226      1
  4329   4225   4243      1
  4330   4226   4227      1
  4331   4226   4228      1
  4332   4227   4230      1
  4333   4227   4244      1
  4334   4227   4245      1
  4335   4230   4231      1
  4336   4230   4234      1
  4337   4231   4232      1
  4338   4231   4246      1
  4339   4232   4233      1
  4340   4233   4234      1
  4341   4233   4235      1
  4342   4235   4249      1
  4343   4236   4240      1
  4344   4236   4250      1
  4345   4236   4251      1
  4346   4237   4238      1
  4347   4238   4239      1
  4348   4238   4252      1
  4349   4239   4240      1
  4350   4239   4253      1
  4351   4240   4241      1
  4352   4254   4258      1
  4353   4254   4259      1
  4354   4255   4256      1
  4355   4256   4265      1
  4356   4257   4258      1
  4357   4257   4272      1
  4358   4258   4273      1
  4359   4259   4266      1
  4360   4259   4274      1
  4361   4260   4261      1
  4362   4260   4264      1
  4363   4260   4265      1
  4364   4261   4262      1
  4365   4262   4263      1
  4366   4263   4264      1
  4367   4263   4275      1
  4368   4264   4276      1
  4369   4265   4277      1
  4370   4266   4267      1
  4371   4266   4270      1
  4372   4267   4268      1
  4373   4267   4278      1
  4374   4268   4269      1
  4375   4268   4279      1
  4376   4269   4271      1
  4377   4271   4280      1
  4378   4271   4281      1
  4379   4282   4283      1
  4380   4282   4286      1
  4381   4282   4287      1
  4382   4283   4284      1
  4383   4284   4285      1
  4384   4284   4293      1
  4385   4285   4286      1
  4386   4285   4300      1
  4387   4286   4301      1
  4388   4287   4294      1
  4389   4287   4302      1
  4390   4288   4292      1
  4391   4290   4291      1
  4392   4291   4292      1
  4393   4291   4303      1
  4394   4292   4304      1
  4395   4293   4305      1
  4396   4294   4295      1
  4397   4294   4298      1
  4398   4295   4296      1
  4399   4295   4306      1
  4400   4296   4297      1
  4401   4296   4307      1
  4402   4297   4298      1
  4403   4297   4299      1
  4404   4299   4308      1
  4405   4299   4309      1
  4406   4310   4311      1
  4407   4310   4314      1
  4408   4310   4315      1
  4409   4311   4312      1
  4410   4312   4313      1
  4411   4312   4316      1
  4412   4313   4314      1
  4413   4313   4317      1
  4414   4314   4318      1
  4415   4315   4319      1
  4416   4316   4320      1
  4417   4321   4322      1
  4418   4321   4325      1
  4419   4321   4326      1
  4420   4322   4323      1
  4421   4323   4324      1
  4422   4323   4327      1
  4423   4324   4325      1
  4424   4324   4328      1
  4425   4325   4329      1
  4426   4326   4330      1
  4427   4327   4331      1
  4428   4332   4333      1
  4429   4332   4339      1
  4430   4332   4342      1
  4431   4332   4345      1
  4432   4333   4334      1
  4433   4333   4368      1
  4434   4334   4335      1
  4435   4334   4369      1
  4436   4335   4340      1
  4437   4335   4343      1
  4438   4335   4345      1
  4439   4336   4337      1
  4440   4336   4340      1
  4441   4336   4344      1
  4442   4337   4338      1
  4443   4338   4339      1
  4444   4338   4341      1
  4445   4339   4340      1
  4446   4339   4370      1
  4447   4340   4371      1
  4448   4341   4349      1
  4449   4341   4372      1
  4450   4342   4360      1
  4451   4342   4373      1
  4452   4342   4374      1
  4453   4343   4361      1
  4454   4343   4375      1
  4455   4343   4376      1
  4456   4344   4352      1
  4457   4344   4377      1
  4458   4346   4347      1
  4459   4347   4348      1
  4460   4347   4378      1
  4461   4348   4349      1
  4462   4348   4379      1
  4463   4349   4350      1
  4464   4351   4352      1
  4465   4351   4355      1
  4466   4352   4353      1
  4467   4353   4354      1
  4468   4353   4380      1
  4469   4354   4355      1
  4470   4354   4381      1
  4471   4355   4367      1
  4472   4356   4357      1
  4473   4356   4360      1
  4474   4357   4358      1
  4475   4358   4359      1
  4476   4358   4382      1
  4477   4359   4360      1
  4478   4359   4383      1
  4479   4361   4362      1
  4480   4361   4365      1
  4481   4362   4363      1
  4482   4362   4384      1
  4483   4363   4364      1
  4484   4363   4385      1
  4485   4364   4365      1
  4486   4364   4405      1
  4487   4364   4436      1
  4488   4366   4386      1
  4489   4366   4387      1
  4490   4367   4388      1
  4491   4367   4389      1
  4492   4390   4391      1
  4493   4390   4397      1
  4494   4390   4400      1
  4495   4390   4403      1
  4496   4391   4392      1
  4497   4391   4426      1
  4498   4392   4393      1
  4499   4392   4427      1
  4500   4393   4398      1
  4501   4393   4401      1
  4502   4393   4403      1
  4503   4394   4395      1
  4504   4394   4398      1
  4505   4394   4402      1
  4506   4395   4396      1
  4507   4396   4397      1
  4508   4396   4399      1
  4509   4397   4398      1
  4510   4397   4428      1
  4511   4398   4429      1
  4512   4399   4407      1
  4513   4399   4430      1
  4514   4400   4418      1
  4515   4400   4431      1
  4516   4400   4432      1
  4517   4401   4419      1
  4518   4401   4433      1
  4519   4401   4434      1
  4520   4402   4410      1
  4521   4402   4435      1
  4522   4404   4405      1
  4523   4404   4408      1
  4524   4405   4406      1
  4525   4406   4407      1
  4526   4406   4437      1
  4527   4407   4408      1
  4528   4409   4410      1
  4529   4409   4413      1
  4530   4410   4411      1
  4531   4411   4412      1
  4532   4411   4438      1
  4533   4412   4413      1
  4534   4412   4439      1
  4535   4413   4425      1
  4536   4414   4415      1
  4537   4414   4418      1
  4538   4415   4416      1
  4539   4415   4424      1
  4540   4416   4417      1
  4541   4416   4440      1
  4542   4417   4418      1
  4543   4417   4441      1
  4544   4419   4420      1
  4545   4419   4423      1
  4546   4420   4421      1
  4547   4420   4442      1
  4548   4421   4422      1
  4549   4421   4443      1
  4550   4424   4444      1
  4551   4424   4445      1
  4552   4425   4446      1
  4553   4425   4447      1
  4554   4448   4449      1
  4555   4448   4455      1
  4556   4448   4458      1
  4557   4448   4461      1
  4558   4449   4450      1
  4559   4449   4484      1
  4560   4450   4451      1
  4561   4450   4485      1
  4562   4451   4456      1
  4563   4451   4459      1
  4564   4452   4453      1
  4565   4452   4456      1
  4566   4452   4460      1
  4567   4453   4454      1
  4568   4454   4455      1
  4569   4454   4457      1
  4570   4455   4456      1
  4571   4455   4486      1
  4572   4456   4487      1
  4573   4457   4465      1
  4574   4457   4488      1
  4575   4458   4476      1
  4576   4458   4489      1
  4577   4458   4490      1
  4578   4459   4477      1
  4579   4459   4492      1
  4580   4460   4468      1
  4581   4460   4493      1
  4582   4461   4562      1
  4583   4462   4463      1
  4584   4462   4466      1
  4585   4462   4483      1
  4586   4463   4464      1
  4587   4463   4494      1
  4588   4464   4465      1
  4589   4464   4495      1
  4590   4465   4466      1
  4591   4467   4468      1
  4592   4467   4491      1
  4593   4468   4469      1
  4594   4469   4470      1
  4595   4469   4496      1
  4596   4470   4471      1
  4597   4470   4497      1
  4598   4472   4476      1
  4599   4473   4474      1
  4600   4474   4498      1
  4601   4475   4476      1
  4602   4475   4499      1
  4603   4477   4478      1
  4604   4477   4541      1
  4605   4478   4500      1
  4606   4478   4541      1
  4607   4479   4480      1
  4608   4479   4520      1
  4609   4479   4541      1
  4610   4480   4481      1
  4611   4480   4482      1
  4612   4481   4482      1
  4613   4482   4502      1
  4614   4482   4503      1
  4615   4483   4504      1
  4616   4483   4505      1
  4617   4501   4519      1
  4618   4506   4507      1
  4619   4506   4513      1
  4620   4506   4516      1
  4621   4506   4519      1
  4622   4507   4508      1
  4623   4507   4542      1
  4624   4508   4509      1
  4625   4508   4543      1
  4626   4509   4514      1
  4627   4509   4517      1
  4628   4510   4511      1
  4629   4510   4514      1
  4630   4510   4518      1
  4631   4511   4512      1
  4632   4512   4513      1
  4633   4512   4515      1
  4634   4513   4514      1
  4635   4513   4544      1
  4636   4514   4545      1
  4637   4515   4523      1
  4638   4515   4546      1
  4639   4516   4534      1
  4640   4516   4547      1
  4641   4516   4548      1
  4642   4517   4535      1
  4643   4517   4549      1
  4644   4517   4550      1
  4645   4518   4526      1
  4646   4518   4551      1
  4647   4520   4521      1
  4648   4520   4524      1
  4649   4521   4522      1
  4650   4521   4552      1
  4651   4522   4523      1
  4652   4522   4553      1
  4653   4523   4524      1
  4654   4525   4526      1
  4655   4525   4529      1
  4656   4526   4527      1
  4657   4527   4528      1
  4658   4527   4554      1
  4659   4528   4529      1
  4660   4528   4555      1
  4661   4530   4534      1
  4662   4531   4532      1
  4663   4532   4533      1
  4664   4532   4556      1
  4665   4535   4536      1
  4666   4535   4539      1
  4667   4536   4537      1
  4668   4536   4558      1
  4669   4537   4538      1
  4670   4537   4559      1
  4671   4538   4539      1
  4672   4540   4560      1
  4673   4540   4561      1
  4674   4564   4565     du
  4675   4565   4566     du
  4676   4566   4567     du
  4677   4567   4564     du
  4678   4568   4569     du
  4679   4569   4570     du
  4680   4570   4571     du
  4681   4571   4568     du
  4682   4567   4571     du
  4683   4568   4564     du
  4684   4566   4570     du
  4685   4569   4565     du
