@<TRIPOS>MOLECULE
HEADER,  graphene_100_atoms.mol2  read w/ mol2SYBYL2lmp > atom_typing v1.6 / 12 September 2023 w/PCFF-IFF atom-types > all2lmp: v1.10 / 12 September 2023  Class: 2 > cell_builder version: v1.1 / 4 July 2023 > lmp2SYBYLmol2 v3.2 / 13 October 2023 w/remove_PBC_bonds=True comments=
  968 1312    0    0    0
SMALL
NO_CHARGES
****
Energy = 0

@<TRIPOS>ATOM
      1 C            0.8534     6.2113    17.4782 C       1      m1     0.0000
      2 C            0.7076     4.9473    16.8523 C       1      m1     0.0000
      3 C            0.8468     6.3069    18.8929 C       1      m1     0.0000
      4 C            0.6943     5.1385    19.6818 C       1      m1     0.0000
      5 C            0.8335     6.4980    21.7225 C       1      m1     0.0000
      6 C            0.6877     5.2340    21.0965 C       1      m1     0.0000
      7 C            0.8269     6.5936    23.1372 C       1      m1     0.0000
      8 C            0.6745     5.4252    23.9261 C       1      m1     0.0000
      9 C            0.8137     6.7847    25.9667 C       1      m1     0.0000
     10 C            0.6678     5.5207    25.3408 C       1      m1     0.0000
     11 C            0.8070     6.8803    27.3815 C       1      m1     0.0000
     12 C            0.6546     5.7119    28.1703 C       1      m1     0.0000
     13 C            0.7938     7.0714    30.2110 C       1      m1     0.0000
     14 C            0.6480     5.8075    29.5851 C       1      m1     0.0000
     15 C            0.7872     7.1670    31.6258 C       1      m1     0.0000
     16 C            0.6347     5.9986    32.4146 C       1      m1     0.0000
     17 C            0.5551     3.7789    17.6411 C       1      m1     0.0000
     18 C            0.4093     2.5149    17.0152 C       1      m1     0.0000
     19 C            0.5485     3.8745    19.0558 C       1      m1     0.0000
     20 C            0.3960     2.7060    19.8447 C       1      m1     0.0000
     21 C            0.5352     4.0656    21.8854 C       1      m1     0.0000
     22 C            0.3894     2.8016    21.2595 C       1      m1     0.0000
     23 C            0.5286     4.1612    23.3001 C       1      m1     0.0000
     24 C            0.3762     2.9927    24.0890 C       1      m1     0.0000
     25 C            0.5154     4.3523    26.1297 C       1      m1     0.0000
     26 C            0.3695     3.0883    25.5037 C       1      m1     0.0000
     27 C            0.5088     4.4479    27.5444 C       1      m1     0.0000
     28 C            0.3563     3.2794    28.3333 C       1      m1     0.0000
     29 C            0.4955     4.6391    30.3739 C       1      m1     0.0000
     30 C            0.3497     3.3750    29.7480 C       1      m1     0.0000
     31 C            0.4889     4.7346    31.7887 C       1      m1     0.0000
     32 C            0.3364     3.5661    32.5775 C       1      m1     0.0000
     33 C            0.2568     1.3465    17.8040 C       1      m1     0.0000
     34 C            0.1110     0.0825    17.1781 C       1      m1     0.0000
     35 C            0.2502     1.4420    19.2188 C       1      m1     0.0000
     36 C            0.0978     0.2736    20.0076 C       1      m1     0.0000
     37 C            0.2370     1.6332    22.0483 C       1      m1     0.0000
     38 C            0.0911     0.3692    21.4224 C       1      m1     0.0000
     39 C            0.2303     1.7287    23.4631 C       1      m1     0.0000
     40 C            0.0779     0.5603    24.2519 C       1      m1     0.0000
     41 C            0.2171     1.9199    26.2926 C       1      m1     0.0000
     42 C            0.0713     0.6559    25.6666 C       1      m1     0.0000
     43 C            0.2105     2.0154    27.7073 C       1      m1     0.0000
     44 C            0.0580     0.8470    28.4962 C       1      m1     0.0000
     45 C            0.1972     2.2066    30.5369 C       1      m1     0.0000
     46 C            0.0514     0.9426    29.9109 C       1      m1     0.0000
     47 C            0.1906     2.3022    31.9516 C       1      m1     0.0000
     48 C            0.0381     1.1338    32.7405 C       1      m1     0.0000
     49 C           -0.0414    -1.0859    17.9669 C       1      m1     0.0000
     50 C           -0.1873    -2.3500    17.3410 C       1      m1     0.0000
     51 C           -0.0481    -0.9903    19.3817 C       1      m1     0.0000
     52 C           -0.2005    -2.1588    20.1705 C       1      m1     0.0000
     53 C           -0.0613    -0.7992    22.2112 C       1      m1     0.0000
     54 C           -0.2072    -2.0633    21.5853 C       1      m1     0.0000
     55 C           -0.0679    -0.7036    23.6260 C       1      m1     0.0000
     56 C           -0.2204    -1.8721    24.4148 C       1      m1     0.0000
     57 C           -0.0812    -0.5125    26.4555 C       1      m1     0.0000
     58 C           -0.2270    -1.7766    25.8296 C       1      m1     0.0000
     59 C           -0.0878    -0.4169    27.8702 C       1      m1     0.0000
     60 C           -0.2403    -1.5854    28.6591 C       1      m1     0.0000
     61 C           -0.1011    -0.2258    30.6998 C       1      m1     0.0000
     62 C           -0.2469    -1.4899    30.0739 C       1      m1     0.0000
     63 C           -0.1077    -0.1302    32.1145 C       1      m1     0.0000
     64 C           -0.2602    -1.2987    32.9034 C       1      m1     0.0000
     65 C           -0.3397    -3.5184    18.1298 C       1      m1     0.0000
     66 C           -0.4856    -4.7824    17.5039 C       1      m1     0.0000
     67 C           -0.3464    -3.4228    19.5446 C       1      m1     0.0000
     68 C           -0.4988    -4.5912    20.3334 C       1      m1     0.0000
     69 C           -0.3596    -3.2317    22.3741 C       1      m1     0.0000
     70 C           -0.5054    -4.4956    21.7482 C       1      m1     0.0000
     71 C           -0.3662    -3.1361    23.7889 C       1      m1     0.0000
     72 C           -0.5187    -4.3045    24.5777 C       1      m1     0.0000
     73 C           -0.3795    -2.9450    26.6184 C       1      m1     0.0000
     74 C           -0.5253    -4.2089    25.9925 C       1      m1     0.0000
     75 C           -0.3861    -2.8494    28.0332 C       1      m1     0.0000
     76 C           -0.5386    -4.0178    28.8220 C       1      m1     0.0000
     77 C           -0.3994    -2.6583    30.8627 C       1      m1     0.0000
     78 C           -0.5452    -3.9222    30.2368 C       1      m1     0.0000
     79 C           -0.4060    -2.5627    32.2775 C       1      m1     0.0000
     80 C           -0.5584    -3.7311    33.0663 C       1      m1     0.0000
     81 C           -0.6380    -5.9508    18.2928 C       1      m1     0.0852
     82 C           -0.7838    -7.2148    17.6668 C       1      m1    -0.0852
     83 C           -0.6446    -5.8552    19.7075 C       1      m1     0.0000
     84 C           -0.7971    -7.0237    20.4964 C       1      m1     0.0000
     85 C           -0.6579    -5.6640    22.5370 C       1      m1     0.0000
     86 C           -0.8037    -6.9281    21.9111 C       1      m1     0.0000
     87 C           -0.6645    -5.5685    23.9518 C       1      m1     0.0000
     88 C           -0.8170    -6.7370    24.7406 C       1      m1     0.0000
     89 C           -0.6778    -5.3773    26.7813 C       1      m1     0.0000
     90 C           -0.8236    -6.6414    26.1554 C       1      m1     0.0000
     91 C           -0.6844    -5.2818    28.1961 C       1      m1     0.0000
     92 C           -0.8368    -6.4503    28.9849 C       1      m1     0.0000
     93 C           -0.6976    -5.0906    31.0256 C       1      m1     0.0000
     94 C           -0.8435    -6.3547    30.3997 C       1      m1     0.0000
     95 C           -0.7043    -4.9951    32.4404 C       1      m1     0.0852
     96 C           -0.8567    -6.1636    33.2292 C       1      m1    -0.0852
     97 C          -26.3254    30.5134   -17.0167 C       2      m2     0.0000
     98 C          -27.6043    29.9456   -17.2462 C       2      m2     0.0000
     99 C          -25.2467    30.2049   -17.8840 C       2      m2     0.0000
    100 C          -25.4470    29.3287   -18.9807 C       2      m2     0.0000
    101 C          -23.0894    29.5880   -19.6185 C       2      m2     0.0000
    102 C          -24.3683    29.0202   -19.8479 C       2      m2     0.0000
    103 C          -22.0108    29.2796   -20.4857 C       2      m2     0.0000
    104 C          -22.2111    28.4033   -21.5824 C       2      m2     0.0000
    105 C          -19.8535    28.6626   -22.2202 C       2      m2     0.0000
    106 C          -21.1324    28.0949   -22.4497 C       2      m2     0.0000
    107 C          -18.7748    28.3542   -23.0874 C       2      m2     0.0000
    108 C          -18.9751    27.4780   -24.1841 C       2      m2     0.0000
    109 C          -16.6176    27.7373   -24.8219 C       2      m2     0.0000
    110 C          -17.8965    27.1695   -25.0514 C       2      m2     0.0000
    111 C          -15.5389    27.4288   -25.6891 C       2      m2     0.0000
    112 C          -15.7392    26.5526   -26.7859 C       2      m2     0.0000
    113 C          -27.8046    29.0694   -18.3429 C       2      m2     0.0000
    114 C          -29.0835    28.5015   -18.5724 C       2      m2     0.0000
    115 C          -26.7259    28.7609   -19.2102 C       2      m2     0.0000
    116 C          -26.9262    27.8846   -20.3069 C       2      m2     0.0000
    117 C          -24.5686    28.1440   -20.9446 C       2      m2     0.0000
    118 C          -25.8476    27.5762   -21.1742 C       2      m2     0.0000
    119 C          -23.4900    27.8355   -21.8119 C       2      m2     0.0000
    120 C          -23.6903    26.9593   -22.9086 C       2      m2     0.0000
    121 C          -21.3327    27.2186   -23.5464 C       2      m2     0.0000
    122 C          -22.6117    26.6508   -23.7759 C       2      m2     0.0000
    123 C          -20.2540    26.9102   -24.4136 C       2      m2     0.0000
    124 C          -20.4544    26.0339   -25.5104 C       2      m2     0.0000
    125 C          -18.0968    26.2933   -26.1481 C       2      m2     0.0000
    126 C          -19.3757    25.7254   -26.3776 C       2      m2     0.0000
    127 C          -17.0181    25.9848   -27.0153 C       2      m2     0.0000
    128 C          -17.2184    25.1085   -28.1121 C       2      m2     0.0000
    129 C          -29.2838    27.6253   -19.6692 C       2      m2     0.0000
    130 C          -30.5627    27.0575   -19.8986 C       2      m2     0.0000
    131 C          -28.2052    27.3168   -20.5364 C       2      m2     0.0000
    132 C          -28.4054    26.4406   -21.6331 C       2      m2     0.0000
    133 C          -26.0479    26.6999   -22.2709 C       2      m2     0.0000
    134 C          -27.3268    26.1322   -22.5003 C       2      m2     0.0000
    135 C          -24.9692    26.3915   -23.1381 C       2      m2     0.0000
    136 C          -25.1695    25.5152   -24.2348 C       2      m2     0.0000
    137 C          -22.8119    25.7746   -24.8726 C       2      m2     0.0000
    138 C          -24.0909    25.2068   -25.1021 C       2      m2     0.0000
    139 C          -21.7333    25.4661   -25.7398 C       2      m2     0.0000
    140 C          -21.9336    24.5899   -26.8365 C       2      m2     0.0000
    141 C          -19.5760    24.8492   -27.4743 C       2      m2     0.0000
    142 C          -20.8549    24.2814   -27.7038 C       2      m2     0.0000
    143 C          -18.4974    24.5407   -28.3416 C       2      m2     0.0000
    144 C          -18.6976    23.6645   -29.4383 C       2      m2     0.0000
    145 C          -30.7630    26.1813   -20.9953 C       2      m2     0.0000
    146 C          -32.0420    25.6135   -21.2249 C       2      m2     0.0000
    147 C          -29.6844    25.8728   -21.8626 C       2      m2     0.0000
    148 C          -29.8847    24.9965   -22.9593 C       2      m2     0.0000
    149 C          -27.5271    25.2559   -23.5971 C       2      m2     0.0000
    150 C          -28.8061    24.6881   -23.8266 C       2      m2     0.0000
    151 C          -26.4484    24.9475   -24.4643 C       2      m2     0.0000
    152 C          -26.6488    24.0712   -25.5611 C       2      m2     0.0000
    153 C          -24.2911    24.3306   -26.1988 C       2      m2     0.0000
    154 C          -25.5701    23.7627   -26.4283 C       2      m2     0.0000
    155 C          -23.2125    24.0221   -27.0660 C       2      m2     0.0000
    156 C          -23.4128    23.1458   -28.1628 C       2      m2     0.0000
    157 C          -21.0552    23.4052   -28.8005 C       2      m2     0.0000
    158 C          -22.3342    22.8374   -29.0300 C       2      m2     0.0000
    159 C          -19.9766    23.0967   -29.6677 C       2      m2     0.0000
    160 C          -20.1769    22.2204   -30.7645 C       2      m2     0.0000
    161 C          -32.2423    24.7372   -22.3216 C       2      m2     0.0000
    162 C          -33.5212    24.1695   -22.5510 C       2      m2     0.0000
    163 C          -31.1636    24.4288   -23.1888 C       2      m2     0.0000
    164 C          -31.3639    23.5525   -24.2855 C       2      m2     0.0000
    165 C          -29.0063    23.8119   -24.9233 C       2      m2     0.0000
    166 C          -30.2853    23.2441   -25.1528 C       2      m2     0.0000
    167 C          -27.9277    23.5034   -25.7905 C       2      m2     0.0000
    168 C          -28.1280    22.6272   -26.8872 C       2      m2     0.0000
    169 C          -25.7704    22.8865   -27.5250 C       2      m2     0.0000
    170 C          -27.0493    22.3187   -27.7545 C       2      m2     0.0000
    171 C          -24.6918    22.5780   -28.3922 C       2      m2     0.0000
    172 C          -24.8920    21.7018   -29.4890 C       2      m2     0.0000
    173 C          -22.5345    21.9611   -30.1267 C       2      m2     0.0000
    174 C          -23.8134    21.3933   -30.3562 C       2      m2     0.0000
    175 C          -21.4558    21.6527   -30.9940 C       2      m2     0.0000
    176 C          -21.6561    20.7764   -32.0907 C       2      m2     0.0000
    177 C          -33.7215    23.2932   -23.6477 C       2      m2     0.0852
    178 C          -35.0004    22.7254   -23.8773 C       2      m2    -0.0852
    179 C          -32.6428    22.9848   -24.5150 C       2      m2     0.0000
    180 C          -32.8432    22.1085   -25.6117 C       2      m2     0.0000
    181 C          -30.4855    22.3678   -26.2495 C       2      m2     0.0000
    182 C          -31.7645    21.8000   -26.4790 C       2      m2     0.0000
    183 C          -29.4069    22.0594   -27.1167 C       2      m2     0.0000
    184 C          -29.6072    21.1831   -28.2135 C       2      m2     0.0000
    185 C          -27.2496    21.4425   -28.8512 C       2      m2     0.0000
    186 C          -28.5286    20.8746   -29.0807 C       2      m2     0.0000
    187 C          -26.1710    21.1340   -29.7184 C       2      m2     0.0000
    188 C          -26.3713    20.2577   -30.8152 C       2      m2     0.0000
    189 C          -24.0137    20.5171   -31.4529 C       2      m2     0.0000
    190 C          -25.2926    19.9493   -31.6824 C       2      m2     0.0000
    191 C          -22.9350    20.2087   -32.3201 C       2      m2     0.0852
    192 C          -23.1354    19.3324   -33.4169 C       2      m2    -0.0852
    193 C           -7.8117    19.3455     1.7003 C       3      m3     0.0000
    194 C           -7.6421    20.0547     2.9164 C       3      m3     0.0000
    195 C           -6.9241    19.5718     0.6179 C       3      m3     0.0000
    196 C           -5.8669    20.5073     0.7515 C       3      m3     0.0000
    197 C           -5.1489    20.0243    -1.5470 C       3      m3     0.0000
    198 C           -4.9793    20.7336    -0.3309 C       3      m3     0.0000
    199 C           -4.2613    20.2506    -2.6294 C       3      m3     0.0000
    200 C           -3.2041    21.1861    -2.4958 C       3      m3     0.0000
    201 C           -2.4860    20.7032    -4.7943 C       3      m3     0.0000
    202 C           -2.3165    21.4124    -3.5782 C       3      m3     0.0000
    203 C           -1.5984    20.9294    -5.8768 C       3      m3     0.0000
    204 C           -0.5413    21.8649    -5.7431 C       3      m3     0.0000
    205 C            0.1768    21.3820    -8.0417 C       3      m3     0.0000
    206 C            0.3463    22.0912    -6.8256 C       3      m3     0.0000
    207 C            1.0644    21.6083    -9.1241 C       3      m3     0.0000
    208 C            2.1215    22.5438    -8.9905 C       3      m3     0.0000
    209 C           -6.5849    20.9903     3.0501 C       3      m3     0.0000
    210 C           -6.4153    21.6995     4.2662 C       3      m3     0.0000
    211 C           -5.6973    21.2165     1.9676 C       3      m3     0.0000
    212 C           -4.6401    22.1521     2.1014 C       3      m3     0.0000
    213 C           -3.9221    21.6691    -0.1972 C       3      m3     0.0000
    214 C           -3.7525    22.3784     1.0189 C       3      m3     0.0000
    215 C           -3.0345    21.8953    -1.2797 C       3      m3     0.0000
    216 C           -1.9773    22.8309    -1.1460 C       3      m3     0.0000
    217 C           -1.2593    22.3479    -3.4446 C       3      m3     0.0000
    218 C           -1.0897    23.0572    -2.2284 C       3      m3     0.0000
    219 C           -0.3717    22.5742    -4.5270 C       3      m3     0.0000
    220 C            0.6855    23.5097    -4.3933 C       3      m3     0.0000
    221 C            1.4035    23.0267    -6.6919 C       3      m3     0.0000
    222 C            1.5731    23.7360    -5.4758 C       3      m3     0.0000
    223 C            2.2911    23.2530    -7.7744 C       3      m3     0.0000
    224 C            3.3483    24.1886    -7.6407 C       3      m3     0.0000
    225 C           -5.3581    22.6351     4.3999 C       3      m3     0.0000
    226 C           -5.1885    23.3443     5.6160 C       3      m3     0.0000
    227 C           -4.4705    22.8613     3.3175 C       3      m3     0.0000
    228 C           -3.4133    23.7968     3.4511 C       3      m3     0.0000
    229 C           -2.6953    23.3139     1.1526 C       3      m3     0.0000
    230 C           -2.5257    24.0231     2.3687 C       3      m3     0.0000
    231 C           -1.8077    23.5402     0.0701 C       3      m3     0.0000
    232 C           -0.7505    24.4757     0.2038 C       3      m3     0.0000
    233 C           -0.0325    23.9927    -2.0948 C       3      m3     0.0000
    234 C            0.1371    24.7019    -0.8787 C       3      m3     0.0000
    235 C            0.8551    24.2190    -3.1772 C       3      m3     0.0000
    236 C            1.9123    25.1545    -3.0436 C       3      m3     0.0000
    237 C            2.6303    24.6715    -5.3421 C       3      m3     0.0000
    238 C            2.7999    25.3808    -4.1260 C       3      m3     0.0000
    239 C            3.5179    24.8978    -6.4246 C       3      m3     0.0000
    240 C            4.5751    25.8333    -6.2909 C       3      m3     0.0000
    241 C           -4.1313    24.2798     5.7497 C       3      m3     0.0000
    242 C           -3.9617    24.9891     6.9658 C       3      m3     0.0000
    243 C           -3.2437    24.5061     4.6672 C       3      m3     0.0000
    244 C           -2.1865    25.4416     4.8009 C       3      m3     0.0000
    245 C           -1.4685    24.9586     2.5023 C       3      m3     0.0000
    246 C           -1.2989    25.6679     3.7185 C       3      m3     0.0000
    247 C           -0.5809    25.1849     1.4199 C       3      m3     0.0000
    248 C            0.4763    26.1205     1.5536 C       3      m3     0.0000
    249 C            1.1943    25.6374    -0.7450 C       3      m3     0.0000
    250 C            1.3639    26.3467     0.4711 C       3      m3     0.0000
    251 C            2.0819    25.8637    -1.8275 C       3      m3     0.0000
    252 C            3.1391    26.7993    -1.6938 C       3      m3     0.0000
    253 C            3.8571    26.3163    -3.9924 C       3      m3     0.0000
    254 C            4.0267    27.0256    -2.7762 C       3      m3     0.0000
    255 C            4.7447    26.5425    -5.0748 C       3      m3     0.0000
    256 C            5.8019    27.4781    -4.9411 C       3      m3     0.0000
    257 C           -2.9045    25.9246     7.0995 C       3      m3     0.0000
    258 C           -2.7349    26.6338     8.3156 C       3      m3     0.0000
    259 C           -2.0169    26.1509     6.0170 C       3      m3     0.0000
    260 C           -0.9597    27.0864     6.1507 C       3      m3     0.0000
    261 C           -0.2417    26.6034     3.8521 C       3      m3     0.0000
    262 C           -0.0721    27.3127     5.0682 C       3      m3     0.0000
    263 C            0.6459    26.8297     2.7697 C       3      m3     0.0000
    264 C            1.7031    27.7652     2.9033 C       3      m3     0.0000
    265 C            2.4211    27.2822     0.6048 C       3      m3     0.0000
    266 C            2.5907    27.9915     1.8209 C       3      m3     0.0000
    267 C            3.3087    27.5085    -0.4777 C       3      m3     0.0000
    268 C            4.3659    28.4440    -0.3440 C       3      m3     0.0000
    269 C            5.0839    27.9611    -2.6426 C       3      m3     0.0000
    270 C            5.2535    28.6703    -1.4265 C       3      m3     0.0000
    271 C            5.9715    28.1873    -3.7250 C       3      m3     0.0000
    272 C            7.0287    29.1229    -3.5913 C       3      m3     0.0000
    273 C           -1.6778    27.5693     8.4492 C       3      m3     0.0852
    274 C           -1.5081    28.2786     9.6654 C       3      m3    -0.0852
    275 C           -0.7902    27.7956     7.3668 C       3      m3     0.0000
    276 C            0.2671    28.7312     7.5005 C       3      m3     0.0000
    277 C            0.9850    28.2482     5.2019 C       3      m3     0.0000
    278 C            1.1547    28.9575     6.4180 C       3      m3     0.0000
    279 C            1.8726    28.4744     4.1194 C       3      m3     0.0000
    280 C            2.9299    29.4100     4.2531 C       3      m3     0.0000
    281 C            3.6478    28.9270     1.9545 C       3      m3     0.0000
    282 C            3.8175    29.6363     3.1707 C       3      m3     0.0000
    283 C            4.5354    29.1533     0.8721 C       3      m3     0.0000
    284 C            5.5927    30.0888     1.0058 C       3      m3     0.0000
    285 C            6.3106    29.6058    -1.2928 C       3      m3     0.0000
    286 C            6.4803    30.3151    -0.0766 C       3      m3     0.0000
    287 C            7.1982    29.8321    -2.3752 C       3      m3     0.0852
    288 C            8.2555    30.7677    -2.2415 C       3      m3    -0.0852
    289 C           27.6081    -6.7506    18.4035 C       4      m4     0.0000
    290 C           26.2590    -6.4650    18.0731 C       4      m4     0.0000
    291 C           28.2290    -6.0822    19.4891 C       4      m4     0.0000
    292 C           27.5008    -5.1283    20.2443 C       4      m4     0.0000
    293 C           29.4707    -4.7455    21.6603 C       4      m4     0.0000
    294 C           28.1217    -4.4599    21.3300 C       4      m4     0.0000
    295 C           30.0916    -4.0772    22.7459 C       4      m4     0.0000
    296 C           29.3634    -3.1232    23.5012 C       4      m4     0.0000
    297 C           31.3334    -2.7405    24.9172 C       4      m4     0.0000
    298 C           29.9843    -2.4549    24.5868 C       4      m4     0.0000
    299 C           31.9543    -2.0722    26.0028 C       4      m4     0.0000
    300 C           31.2261    -1.1182    26.7580 C       4      m4     0.0000
    301 C           33.1960    -0.7355    28.1740 C       4      m4     0.0000
    302 C           31.8470    -0.4499    27.8436 C       4      m4     0.0000
    303 C           33.8169    -0.0672    29.2596 C       4      m4     0.0000
    304 C           33.0887     0.8868    30.0149 C       4      m4     0.0000
    305 C           25.5309    -5.5110    18.8284 C       4      m4     0.0000
    306 C           24.1817    -5.2253    18.4980 C       4      m4     0.0000
    307 C           26.1517    -4.8427    19.9140 C       4      m4     0.0000
    308 C           25.4235    -3.8887    20.6692 C       4      m4     0.0000
    309 C           27.3935    -3.5060    22.0852 C       4      m4     0.0000
    310 C           26.0444    -3.2203    21.7549 C       4      m4     0.0000
    311 C           28.0144    -2.8376    23.1708 C       4      m4     0.0000
    312 C           27.2861    -1.8836    23.9261 C       4      m4     0.0000
    313 C           29.2561    -1.5010    25.3420 C       4      m4     0.0000
    314 C           27.9070    -1.2153    25.0117 C       4      m4     0.0000
    315 C           29.8770    -0.8326    26.4277 C       4      m4     0.0000
    316 C           29.1488     0.1214    27.1829 C       4      m4     0.0000
    317 C           31.1188     0.5041    28.5989 C       4      m4     0.0000
    318 C           29.7696     0.7897    28.2685 C       4      m4     0.0000
    319 C           31.7397     1.1724    29.6845 C       4      m4     0.0000
    320 C           31.0114     2.1264    30.4398 C       4      m4     0.0000
    321 C           23.4536    -4.2714    19.2533 C       4      m4     0.0000
    322 C           22.1045    -3.9858    18.9229 C       4      m4     0.0000
    323 C           24.0744    -3.6030    20.3389 C       4      m4     0.0000
    324 C           23.3463    -2.6491    21.0941 C       4      m4     0.0000
    325 C           25.3162    -2.2664    22.5101 C       4      m4     0.0000
    326 C           23.9671    -1.9808    22.1797 C       4      m4     0.0000
    327 C           25.9371    -1.5980    23.5957 C       4      m4     0.0000
    328 C           25.2089    -0.6441    24.3510 C       4      m4     0.0000
    329 C           27.1788    -0.2613    25.7669 C       4      m4     0.0000
    330 C           25.8298     0.0243    25.4366 C       4      m4     0.0000
    331 C           27.7997     0.4070    26.8526 C       4      m4     0.0000
    332 C           27.0715     1.3609    27.6078 C       4      m4     0.0000
    333 C           29.0415     1.7437    29.0238 C       4      m4     0.0000
    334 C           27.6924     2.0293    28.6934 C       4      m4     0.0000
    335 C           29.6623     2.4120    30.1094 C       4      m4     0.0000
    336 C           28.9342     3.3660    30.8646 C       4      m4     0.0000
    337 C           21.3763    -3.0318    19.6782 C       4      m4     0.0000
    338 C           20.0272    -2.7462    19.3478 C       4      m4     0.0000
    339 C           21.9972    -2.3635    20.7638 C       4      m4     0.0000
    340 C           21.2689    -1.4095    21.5190 C       4      m4     0.0000
    341 C           23.2390    -1.0268    22.9350 C       4      m4     0.0000
    342 C           21.8898    -0.7411    22.6046 C       4      m4     0.0000
    343 C           23.8598    -0.3585    24.0206 C       4      m4     0.0000
    344 C           23.1316     0.5955    24.7759 C       4      m4     0.0000
    345 C           25.1016     0.9782    26.1918 C       4      m4     0.0000
    346 C           23.7525     1.2639    25.8615 C       4      m4     0.0000
    347 C           25.7225     1.6466    27.2774 C       4      m4     0.0000
    348 C           24.9942     2.6006    28.0327 C       4      m4     0.0000
    349 C           26.9642     2.9832    29.4487 C       4      m4     0.0000
    350 C           25.6151     3.2689    29.1183 C       4      m4     0.0000
    351 C           27.5851     3.6516    30.5343 C       4      m4     0.0000
    352 C           26.8568     4.6056    31.2895 C       4      m4     0.0000
    353 C           19.2990    -1.7922    20.1031 C       4      m4     0.0000
    354 C           17.9499    -1.5066    19.7727 C       4      m4     0.0000
    355 C           19.9199    -1.1239    21.1887 C       4      m4     0.0000
    356 C           19.1917    -0.1699    21.9439 C       4      m4     0.0000
    357 C           21.1616     0.2128    23.3599 C       4      m4     0.0000
    358 C           19.8126     0.4984    23.0295 C       4      m4     0.0000
    359 C           21.7825     0.8811    24.4455 C       4      m4     0.0000
    360 C           21.0543     1.8351    25.2008 C       4      m4     0.0000
    361 C           23.0243     2.2178    26.6167 C       4      m4     0.0000
    362 C           21.6752     2.5034    26.2864 C       4      m4     0.0000
    363 C           23.6452     2.8862    27.7023 C       4      m4     0.0000
    364 C           22.9170     3.8401    28.4576 C       4      m4     0.0000
    365 C           24.8869     4.2229    29.8736 C       4      m4     0.0000
    366 C           23.5379     4.5085    29.5432 C       4      m4     0.0000
    367 C           25.5078     4.8912    30.9592 C       4      m4     0.0000
    368 C           24.7796     5.8451    31.7144 C       4      m4     0.0000
    369 C           17.2218    -0.5527    20.5279 C       4      m4     0.0852
    370 C           15.8726    -0.2670    20.1976 C       4      m4    -0.0852
    371 C           17.8426     0.1157    21.6136 C       4      m4     0.0000
    372 C           17.1144     1.0697    22.3688 C       4      m4     0.0000
    373 C           19.0844     1.4524    23.7848 C       4      m4     0.0000
    374 C           17.7353     1.7380    23.4544 C       4      m4     0.0000
    375 C           19.7053     2.1207    24.8704 C       4      m4     0.0000
    376 C           18.9770     3.0747    25.6257 C       4      m4     0.0000
    377 C           20.9470     3.4574    27.0416 C       4      m4     0.0000
    378 C           19.5979     3.7431    26.7113 C       4      m4     0.0000
    379 C           21.5679     4.1257    28.1272 C       4      m4     0.0000
    380 C           20.8397     5.0797    28.8825 C       4      m4     0.0000
    381 C           22.8097     5.4624    30.2985 C       4      m4     0.0000
    382 C           21.4605     5.7481    29.9681 C       4      m4     0.0000
    383 C           23.4306     6.1308    31.3841 C       4      m4     0.0852
    384 C           22.7023     7.0848    32.1393 C       4      m4    -0.0852
    385 C           -9.4274   -27.0630   -23.3407 C       5      m5     0.0000
    386 C           -8.9928   -28.1301   -24.1672 C       5      m5     0.0000
    387 C           -8.5194   -26.0396   -22.9682 C       5      m5     0.0000
    388 C           -7.1768   -26.0831   -23.4222 C       5      m5     0.0000
    389 C           -6.7034   -23.9926   -22.2232 C       5      m5     0.0000
    390 C           -6.2688   -25.0597   -23.0498 C       5      m5     0.0000
    391 C           -5.7954   -22.9691   -21.8508 C       5      m5     0.0000
    392 C           -4.4528   -23.0127   -22.3048 C       5      m5     0.0000
    393 C           -3.9794   -20.9222   -21.1058 C       5      m5     0.0000
    394 C           -3.5448   -21.9892   -21.9324 C       5      m5     0.0000
    395 C           -3.0714   -19.8987   -20.7334 C       5      m5     0.0000
    396 C           -1.7288   -19.9423   -21.1874 C       5      m5     0.0000
    397 C           -1.2554   -17.8517   -19.9884 C       5      m5     0.0000
    398 C           -0.8208   -18.9188   -20.8150 C       5      m5     0.0000
    399 C           -0.3474   -16.8282   -19.6160 C       5      m5     0.0000
    400 C            0.9952   -16.8718   -20.0700 C       5      m5     0.0000
    401 C           -7.6502   -28.1737   -24.6212 C       5      m5     0.0000
    402 C           -7.2156   -29.2408   -25.4478 C       5      m5     0.0000
    403 C           -6.7422   -27.1502   -24.2488 C       5      m5     0.0000
    404 C           -5.3996   -27.1938   -24.7029 C       5      m5     0.0000
    405 C           -4.9262   -25.1033   -23.5038 C       5      m5     0.0000
    406 C           -4.4915   -26.1704   -24.3304 C       5      m5     0.0000
    407 C           -4.0182   -24.0798   -23.1314 C       5      m5     0.0000
    408 C           -2.6755   -24.1234   -23.5855 C       5      m5     0.0000
    409 C           -2.2022   -22.0328   -22.3864 C       5      m5     0.0000
    410 C           -1.7675   -23.0999   -23.2130 C       5      m5     0.0000
    411 C           -1.2942   -21.0093   -22.0140 C       5      m5     0.0000
    412 C            0.0485   -21.0530   -22.4681 C       5      m5     0.0000
    413 C            0.5218   -18.9624   -21.2690 C       5      m5     0.0000
    414 C            0.9565   -20.0295   -22.0956 C       5      m5     0.0000
    415 C            1.4298   -17.9389   -20.8966 C       5      m5     0.0000
    416 C            2.7725   -17.9825   -21.3507 C       5      m5     0.0000
    417 C           -5.8730   -29.2844   -25.9019 C       5      m5     0.0000
    418 C           -5.4384   -30.3515   -26.7284 C       5      m5     0.0000
    419 C           -4.9650   -28.2609   -25.5294 C       5      m5     0.0000
    420 C           -3.6223   -28.3045   -25.9835 C       5      m5     0.0000
    421 C           -3.1489   -26.2140   -24.7845 C       5      m5     0.0000
    422 C           -2.7143   -27.2810   -25.6110 C       5      m5     0.0000
    423 C           -2.2409   -25.1905   -24.4120 C       5      m5     0.0000
    424 C           -0.8983   -25.2341   -24.8661 C       5      m5     0.0000
    425 C           -0.4249   -23.1435   -23.6671 C       5      m5     0.0000
    426 C            0.0097   -24.2106   -24.4936 C       5      m5     0.0000
    427 C            0.4831   -22.1200   -23.2946 C       5      m5     0.0000
    428 C            1.8257   -22.1636   -23.7487 C       5      m5     0.0000
    429 C            2.2991   -20.0731   -22.5497 C       5      m5     0.0000
    430 C            2.7337   -21.1401   -23.3762 C       5      m5     0.0000
    431 C            3.2071   -19.0496   -22.1772 C       5      m5     0.0000
    432 C            4.5497   -19.0932   -22.6313 C       5      m5     0.0000
    433 C           -4.0958   -30.3951   -27.1825 C       5      m5     0.0000
    434 C           -3.6611   -31.4622   -28.0091 C       5      m5     0.0000
    435 C           -3.1877   -29.3716   -26.8100 C       5      m5     0.0000
    436 C           -1.8451   -29.4152   -27.2641 C       5      m5     0.0000
    437 C           -1.3717   -27.3246   -26.0651 C       5      m5     0.0000
    438 C           -0.9371   -28.3917   -26.8917 C       5      m5     0.0000
    439 C           -0.4637   -26.3011   -25.6926 C       5      m5     0.0000
    440 C            0.8790   -26.3448   -26.1467 C       5      m5     0.0000
    441 C            1.3523   -24.2542   -24.9477 C       5      m5     0.0000
    442 C            1.7870   -25.3213   -25.7742 C       5      m5     0.0000
    443 C            2.2603   -23.2307   -24.5752 C       5      m5     0.0000
    444 C            3.6030   -23.2743   -25.0293 C       5      m5     0.0000
    445 C            4.0763   -21.1837   -23.8303 C       5      m5     0.0000
    446 C            4.5110   -22.2508   -24.6568 C       5      m5     0.0000
    447 C            4.9843   -20.1602   -23.4578 C       5      m5     0.0000
    448 C            6.3270   -20.2039   -23.9119 C       5      m5     0.0000
    449 C           -2.3185   -31.5058   -28.4631 C       5      m5     0.0000
    450 C           -1.8839   -32.5728   -29.2896 C       5      m5     0.0000
    451 C           -1.4105   -30.4823   -28.0906 C       5      m5     0.0000
    452 C           -0.0679   -30.5259   -28.5447 C       5      m5     0.0000
    453 C            0.4055   -28.4353   -27.3457 C       5      m5     0.0000
    454 C            0.8401   -29.5024   -28.1722 C       5      m5     0.0000
    455 C            1.3136   -27.4118   -26.9732 C       5      m5     0.0000
    456 C            2.6562   -27.4554   -27.4273 C       5      m5     0.0000
    457 C            3.1296   -25.3649   -26.2283 C       5      m5     0.0000
    458 C            3.5642   -26.4319   -27.0548 C       5      m5     0.0000
    459 C            4.0376   -24.3414   -25.8558 C       5      m5     0.0000
    460 C            5.3802   -24.3850   -26.3099 C       5      m5     0.0000
    461 C            5.8536   -22.2944   -25.1109 C       5      m5     0.0000
    462 C            6.2882   -23.3615   -25.9374 C       5      m5     0.0000
    463 C            6.7616   -21.2710   -24.7384 C       5      m5     0.0000
    464 C            8.1042   -21.3145   -25.1925 C       5      m5     0.0000
    465 C           -0.5413   -32.6164   -29.7437 C       5      m5     0.0852
    466 C           -0.1066   -33.6835   -30.5703 C       5      m5    -0.0852
    467 C            0.3667   -31.5929   -29.3712 C       5      m5     0.0000
    468 C            1.7094   -31.6366   -29.8254 C       5      m5     0.0000
    469 C            2.1828   -29.5460   -28.6263 C       5      m5     0.0000
    470 C            2.6174   -30.6131   -29.4529 C       5      m5     0.0000
    471 C            3.0908   -28.5225   -28.2538 C       5      m5     0.0000
    472 C            4.4334   -28.5661   -28.7079 C       5      m5     0.0000
    473 C            4.9068   -26.4755   -27.5089 C       5      m5     0.0000
    474 C            5.3414   -27.5426   -28.3355 C       5      m5     0.0000
    475 C            5.8148   -25.4521   -27.1364 C       5      m5     0.0000
    476 C            7.1575   -25.4957   -27.5905 C       5      m5     0.0000
    477 C            7.6308   -23.4051   -26.3915 C       5      m5     0.0000
    478 C            8.0655   -24.4722   -27.2181 C       5      m5     0.0000
    479 C            8.5388   -22.3816   -26.0190 C       5      m5     0.0852
    480 C            9.8815   -22.4252   -26.4731 C       5      m5    -0.0852
    481 C           15.4043   -25.7210    26.8133 C       6      m6     0.0000
    482 C           15.5520   -24.4005    26.3182 C       6      m6     0.0000
    483 C           16.5376   -26.5651    26.9308 C       6      m6     0.0000
    484 C           17.8186   -26.0887    26.5530 C       6      m6     0.0000
    485 C           18.8043   -28.2533    27.1656 C       6      m6     0.0000
    486 C           18.9520   -26.9328    26.6704 C       6      m6     0.0000
    487 C           19.9376   -29.0974    27.2830 C       6      m6     0.0000
    488 C           21.2186   -28.6210    26.9053 C       6      m6     0.0000
    489 C           22.2042   -30.7856    27.5178 C       6      m6     0.0000
    490 C           22.3519   -29.4651    27.0227 C       6      m6     0.0000
    491 C           23.3376   -31.6297    27.6353 C       6      m6     0.0000
    492 C           24.6186   -31.1533    27.2575 C       6      m6     0.0000
    493 C           25.6042   -33.3179    27.8701 C       6      m6     0.0000
    494 C           25.7519   -31.9974    27.3750 C       6      m6     0.0000
    495 C           26.7376   -34.1620    27.9875 C       6      m6     0.0000
    496 C           28.0186   -33.6856    27.6098 C       6      m6     0.0000
    497 C           16.8330   -23.9241    25.9405 C       6      m6     0.0000
    498 C           16.9808   -22.6036    25.4453 C       6      m6     0.0000
    499 C           17.9663   -24.7682    26.0579 C       6      m6     0.0000
    500 C           19.2474   -24.2918    25.6801 C       6      m6     0.0000
    501 C           20.2330   -26.4564    26.2927 C       6      m6     0.0000
    502 C           20.3807   -25.1359    25.7975 C       6      m6     0.0000
    503 C           21.3663   -27.3005    26.4101 C       6      m6     0.0000
    504 C           22.6474   -26.8241    26.0324 C       6      m6     0.0000
    505 C           23.6330   -28.9887    26.6450 C       6      m6     0.0000
    506 C           23.7807   -27.6682    26.1498 C       6      m6     0.0000
    507 C           24.7663   -29.8328    26.7624 C       6      m6     0.0000
    508 C           26.0474   -29.3564    26.3846 C       6      m6     0.0000
    509 C           27.0330   -31.5210    26.9972 C       6      m6     0.0000
    510 C           27.1807   -30.2005    26.5020 C       6      m6     0.0000
    511 C           28.1663   -32.3651    27.1146 C       6      m6     0.0000
    512 C           29.4474   -31.8886    26.7369 C       6      m6     0.0000
    513 C           18.2618   -22.1272    25.0676 C       6      m6     0.0000
    514 C           18.4095   -20.8067    24.5724 C       6      m6     0.0000
    515 C           19.3951   -22.9713    25.1850 C       6      m6     0.0000
    516 C           20.6761   -22.4949    24.8073 C       6      m6     0.0000
    517 C           21.6618   -24.6595    25.4198 C       6      m6     0.0000
    518 C           21.8095   -23.3390    24.9247 C       6      m6     0.0000
    519 C           22.7951   -25.5036    25.5372 C       6      m6     0.0000
    520 C           24.0761   -25.0272    25.1595 C       6      m6     0.0000
    521 C           25.0618   -27.1918    25.7721 C       6      m6     0.0000
    522 C           25.2095   -25.8713    25.2769 C       6      m6     0.0000
    523 C           26.1951   -28.0359    25.8895 C       6      m6     0.0000
    524 C           27.4761   -27.5595    25.5118 C       6      m6     0.0000
    525 C           28.4618   -29.7241    26.1243 C       6      m6     0.0000
    526 C           28.6095   -28.4036    25.6292 C       6      m6     0.0000
    527 C           29.5951   -30.5682    26.2417 C       6      m6     0.0000
    528 C           30.8761   -30.0918    25.8640 C       6      m6     0.0000
    529 C           19.6905   -20.3303    24.1947 C       6      m6     0.0000
    530 C           19.8383   -19.0098    23.6995 C       6      m6     0.0000
    531 C           20.8238   -21.1744    24.3121 C       6      m6     0.0000
    532 C           22.1049   -20.6979    23.9344 C       6      m6     0.0000
    533 C           23.0905   -22.8626    24.5470 C       6      m6     0.0000
    534 C           23.2383   -21.5420    24.0518 C       6      m6     0.0000
    535 C           24.2238   -23.7067    24.6644 C       6      m6     0.0000
    536 C           25.5049   -23.2302    24.2866 C       6      m6     0.0000
    537 C           26.4905   -25.3949    24.8992 C       6      m6     0.0000
    538 C           26.6383   -24.0743    24.4040 C       6      m6     0.0000
    539 C           27.6238   -26.2390    25.0166 C       6      m6     0.0000
    540 C           28.9049   -25.7625    24.6389 C       6      m6     0.0000
    541 C           29.8905   -27.9272    25.2515 C       6      m6     0.0000
    542 C           30.0382   -26.6066    24.7563 C       6      m6     0.0000
    543 C           31.0238   -28.7713    25.3689 C       6      m6     0.0000
    544 C           32.3049   -28.2948    24.9911 C       6      m6     0.0000
    545 C           21.1193   -18.5334    23.3218 C       6      m6     0.0000
    546 C           21.2670   -17.2129    22.8267 C       6      m6     0.0000
    547 C           22.2526   -19.3775    23.4392 C       6      m6     0.0000
    548 C           23.5337   -18.9011    23.0615 C       6      m6     0.0000
    549 C           24.5193   -21.0657    23.6741 C       6      m6     0.0000
    550 C           24.6670   -19.7452    23.1789 C       6      m6     0.0000
    551 C           25.6526   -21.9098    23.7915 C       6      m6     0.0000
    552 C           26.9337   -21.4334    23.4138 C       6      m6     0.0000
    553 C           27.9193   -23.5979    24.0263 C       6      m6     0.0000
    554 C           28.0670   -22.2775    23.5312 C       6      m6     0.0000
    555 C           29.0526   -24.4420    24.1437 C       6      m6     0.0000
    556 C           30.3337   -23.9657    23.7660 C       6      m6     0.0000
    557 C           31.3193   -26.1302    24.3786 C       6      m6     0.0000
    558 C           31.4670   -24.8098    23.8834 C       6      m6     0.0000
    559 C           32.4526   -26.9743    24.4960 C       6      m6     0.0000
    560 C           33.7336   -26.4979    24.1183 C       6      m6     0.0000
    561 C           22.5480   -16.7365    22.4489 C       6      m6     0.0852
    562 C           22.6958   -15.4159    21.9538 C       6      m6    -0.0852
    563 C           23.6814   -17.5806    22.5664 C       6      m6     0.0000
    564 C           24.9625   -17.1041    22.1886 C       6      m6     0.0000
    565 C           25.9480   -19.2688    22.8012 C       6      m6     0.0000
    566 C           26.0958   -17.9482    22.3060 C       6      m6     0.0000
    567 C           27.0814   -20.1129    22.9186 C       6      m6     0.0000
    568 C           28.3625   -19.6364    22.5408 C       6      m6     0.0000
    569 C           29.3480   -21.8011    23.1534 C       6      m6     0.0000
    570 C           29.4958   -20.4805    22.6583 C       6      m6     0.0000
    571 C           30.4814   -22.6452    23.2709 C       6      m6     0.0000
    572 C           31.7624   -22.1687    22.8931 C       6      m6     0.0000
    573 C           32.7480   -24.3334    23.5057 C       6      m6     0.0000
    574 C           32.8958   -23.0128    23.0105 C       6      m6     0.0000
    575 C           33.8813   -25.1775    23.6231 C       6      m6     0.0852
    576 C           35.1624   -24.7010    23.2454 C       6      m6    -0.0852
    577 C          -15.7207    26.5805    22.3012 C       7      m7     0.0000
    578 C          -16.4707    26.9741    21.1639 C       7      m7     0.0000
    579 C          -16.3859    26.0973    23.4565 C       7      m7     0.0000
    580 C          -17.8009    26.0076    23.4746 C       7      m7     0.0000
    581 C          -17.7161    25.1308    25.7672 C       7      m7     0.0000
    582 C          -18.4660    25.5244    24.6299 C       7      m7     0.0000
    583 C          -18.3812    24.6476    26.9226 C       7      m7     0.0000
    584 C          -19.7962    24.5579    26.9406 C       7      m7     0.0000
    585 C          -19.7114    23.6811    29.2332 C       7      m7     0.0000
    586 C          -20.4613    24.0746    28.0960 C       7      m7     0.0000
    587 C          -20.3765    23.1978    30.3886 C       7      m7     0.0000
    588 C          -21.7916    23.1081    30.4067 C       7      m7     0.0000
    589 C          -21.7068    22.2313    32.6993 C       7      m7     0.0000
    590 C          -22.4567    22.6249    31.5620 C       7      m7     0.0000
    591 C          -22.3719    21.7481    33.8546 C       7      m7     0.0000
    592 C          -23.7869    21.6584    33.8727 C       7      m7     0.0000
    593 C          -17.8857    26.8844    21.1820 C       7      m7     0.0000
    594 C          -18.6357    27.2780    20.0446 C       7      m7     0.0000
    595 C          -18.5508    26.4012    22.3373 C       7      m7     0.0000
    596 C          -19.9659    26.3115    22.3553 C       7      m7     0.0000
    597 C          -19.8810    25.4347    24.6480 C       7      m7     0.0000
    598 C          -20.6310    25.8283    23.5107 C       7      m7     0.0000
    599 C          -20.5461    24.9514    25.8033 C       7      m7     0.0000
    600 C          -21.9613    24.8618    25.8214 C       7      m7     0.0000
    601 C          -21.8764    23.9849    28.1140 C       7      m7     0.0000
    602 C          -22.6264    24.3785    26.9767 C       7      m7     0.0000
    603 C          -22.5415    23.5017    29.2694 C       7      m7     0.0000
    604 C          -23.9566    23.4120    29.2874 C       7      m7     0.0000
    605 C          -23.8717    22.5352    31.5801 C       7      m7     0.0000
    606 C          -24.6217    22.9288    30.4427 C       7      m7     0.0000
    607 C          -24.5368    22.0520    32.7354 C       7      m7     0.0000
    608 C          -25.9519    21.9623    32.7534 C       7      m7     0.0000
    609 C          -20.0507    27.1883    20.0627 C       7      m7     0.0000
    610 C          -20.8006    27.5819    18.9254 C       7      m7     0.0000
    611 C          -20.7158    26.7051    21.2180 C       7      m7     0.0000
    612 C          -22.1308    26.6154    21.2361 C       7      m7     0.0000
    613 C          -22.0460    25.7386    23.5287 C       7      m7     0.0000
    614 C          -22.7960    26.1321    22.3915 C       7      m7     0.0000
    615 C          -22.7112    25.2553    24.6841 C       7      m7     0.0000
    616 C          -24.1262    25.1656    24.7021 C       7      m7     0.0000
    617 C          -24.0414    24.2888    26.9948 C       7      m7     0.0000
    618 C          -24.7913    24.6824    25.8575 C       7      m7     0.0000
    619 C          -24.7065    23.8056    28.1501 C       7      m7     0.0000
    620 C          -26.1215    23.7159    28.1682 C       7      m7     0.0000
    621 C          -26.0367    22.8391    30.4608 C       7      m7     0.0000
    622 C          -26.7866    23.2327    29.3235 C       7      m7     0.0000
    623 C          -26.7018    22.3559    31.6161 C       7      m7     0.0000
    624 C          -28.1169    22.2662    31.6342 C       7      m7     0.0000
    625 C          -22.2156    27.4922    18.9435 C       7      m7     0.0000
    626 C          -22.9656    27.8858    17.8062 C       7      m7     0.0000
    627 C          -22.8808    27.0090    20.0988 C       7      m7     0.0000
    628 C          -24.2959    26.9193    20.1169 C       7      m7     0.0000
    629 C          -24.2110    26.0425    22.4095 C       7      m7     0.0000
    630 C          -24.9610    26.4360    21.2722 C       7      m7     0.0000
    631 C          -24.8761    25.5592    23.5649 C       7      m7     0.0000
    632 C          -26.2912    25.4695    23.5829 C       7      m7     0.0000
    633 C          -26.2063    24.5927    25.8756 C       7      m7     0.0000
    634 C          -26.9563    24.9863    24.7382 C       7      m7     0.0000
    635 C          -26.8714    24.1095    27.0309 C       7      m7     0.0000
    636 C          -28.2866    24.0198    27.0489 C       7      m7     0.0000
    637 C          -28.2017    23.1430    29.3416 C       7      m7     0.0000
    638 C          -28.9517    23.5366    28.2043 C       7      m7     0.0000
    639 C          -28.8668    22.6597    30.4969 C       7      m7     0.0000
    640 C          -30.2819    22.5701    30.5149 C       7      m7     0.0000
    641 C          -24.3807    27.7961    17.8242 C       7      m7     0.0000
    642 C          -25.1306    28.1897    16.6869 C       7      m7     0.0000
    643 C          -25.0458    27.3129    18.9796 C       7      m7     0.0000
    644 C          -26.4608    27.2232    18.9976 C       7      m7     0.0000
    645 C          -26.3760    26.3464    21.2903 C       7      m7     0.0000
    646 C          -27.1259    26.7399    20.1530 C       7      m7     0.0000
    647 C          -27.0411    25.8631    22.4456 C       7      m7     0.0000
    648 C          -28.4561    25.7734    22.4637 C       7      m7     0.0000
    649 C          -28.3714    24.8966    24.7563 C       7      m7     0.0000
    650 C          -29.1213    25.2902    23.6190 C       7      m7     0.0000
    651 C          -29.0365    24.4134    25.9116 C       7      m7     0.0000
    652 C          -30.4515    24.3237    25.9297 C       7      m7     0.0000
    653 C          -30.3667    23.4469    28.2223 C       7      m7     0.0000
    654 C          -31.1166    23.8404    27.0850 C       7      m7     0.0000
    655 C          -31.0318    22.9636    29.3777 C       7      m7     0.0000
    656 C          -32.4468    22.8739    29.3957 C       7      m7     0.0000
    657 C          -26.5456    28.1000    16.7050 C       7      m7     0.0852
    658 C          -27.2956    28.4936    15.5677 C       7      m7    -0.0852
    659 C          -27.2107    27.6167    17.8604 C       7      m7     0.0000
    660 C          -28.6258    27.5271    17.8784 C       7      m7     0.0000
    661 C          -28.5409    26.6502    20.1710 C       7      m7     0.0000
    662 C          -29.2909    27.0438    19.0337 C       7      m7     0.0000
    663 C          -29.2061    26.1670    21.3264 C       7      m7     0.0000
    664 C          -30.6212    26.0773    21.3444 C       7      m7     0.0000
    665 C          -30.5363    25.2005    23.6371 C       7      m7     0.0000
    666 C          -31.2863    25.5941    22.4997 C       7      m7     0.0000
    667 C          -31.2014    24.7173    24.7924 C       7      m7     0.0000
    668 C          -32.6165    24.6276    24.8104 C       7      m7     0.0000
    669 C          -32.5316    23.7508    27.1031 C       7      m7     0.0000
    670 C          -33.2816    24.1443    25.9658 C       7      m7     0.0000
    671 C          -33.1967    23.2675    28.2585 C       7      m7     0.0852
    672 C          -34.6119    23.1778    28.2765 C       7      m7    -0.0852
    673 C           -9.4103   -27.4528    23.8528 C       8      m8     0.0000
    674 C           -8.7174   -28.6661    23.6110 C       8      m8     0.0000
    675 C           -8.6878   -26.2753    24.1725 C       8      m8     0.0000
    676 C           -7.2725   -26.3110    24.2503 C       8      m8     0.0000
    677 C           -7.2429   -23.9202    24.8117 C       8      m8     0.0000
    678 C           -6.5500   -25.1335    24.5699 C       8      m8     0.0000
    679 C           -6.5204   -22.7427    25.1313 C       8      m8     0.0000
    680 C           -5.1051   -22.7784    25.2092 C       8      m8     0.0000
    681 C           -5.0755   -20.3876    25.7706 C       8      m8     0.0000
    682 C           -4.3826   -21.6009    25.5288 C       8      m8     0.0000
    683 C           -4.3530   -19.2100    26.0902 C       8      m8     0.0000
    684 C           -2.9376   -19.2458    26.1680 C       8      m8     0.0000
    685 C           -2.9081   -16.8550    26.7294 C       8      m8     0.0000
    686 C           -2.2152   -18.0682    26.4876 C       8      m8     0.0000
    687 C           -2.1856   -15.6774    27.0491 C       8      m8     0.0000
    688 C           -0.7702   -15.7132    27.1269 C       8      m8     0.0000
    689 C           -7.3020   -28.7019    23.6889 C       8      m8     0.0000
    690 C           -6.6090   -29.9152    23.4471 C       8      m8     0.0000
    691 C           -6.5795   -27.5243    24.0085 C       8      m8     0.0000
    692 C           -5.1640   -27.5601    24.0863 C       8      m8     0.0000
    693 C           -5.1346   -25.1692    24.6477 C       8      m8     0.0000
    694 C           -4.4416   -26.3826    24.4059 C       8      m8     0.0000
    695 C           -4.4121   -23.9917    24.9674 C       8      m8     0.0000
    696 C           -2.9966   -24.0275    25.0452 C       8      m8     0.0000
    697 C           -2.9672   -21.6366    25.6066 C       8      m8     0.0000
    698 C           -2.2742   -22.8499    25.3648 C       8      m8     0.0000
    699 C           -2.2447   -20.4591    25.9262 C       8      m8     0.0000
    700 C           -0.8292   -20.4949    26.0040 C       8      m8     0.0000
    701 C           -0.7998   -18.1040    26.5655 C       8      m8     0.0000
    702 C           -0.1068   -19.3173    26.3237 C       8      m8     0.0000
    703 C           -0.0773   -16.9264    26.8851 C       8      m8     0.0000
    704 C            1.3382   -16.9622    26.9629 C       8      m8     0.0000
    705 C           -5.1936   -29.9509    23.5249 C       8      m8     0.0000
    706 C           -4.5007   -31.1642    23.2831 C       8      m8     0.0000
    707 C           -4.4711   -28.7734    23.8445 C       8      m8     0.0000
    708 C           -3.0557   -28.8091    23.9223 C       8      m8     0.0000
    709 C           -3.0262   -26.4183    24.4837 C       8      m8     0.0000
    710 C           -2.3333   -27.6316    24.2419 C       8      m8     0.0000
    711 C           -2.3037   -25.2408    24.8034 C       8      m8     0.0000
    712 C           -0.8883   -25.2765    24.8812 C       8      m8     0.0000
    713 C           -0.8588   -22.8857    25.4426 C       8      m8     0.0000
    714 C           -0.1659   -24.0990    25.2008 C       8      m8     0.0000
    715 C           -0.1363   -21.7081    25.7622 C       8      m8     0.0000
    716 C            1.2791   -21.7439    25.8401 C       8      m8     0.0000
    717 C            1.3086   -19.3530    26.4015 C       8      m8     0.0000
    718 C            2.0015   -20.5663    26.1597 C       8      m8     0.0000
    719 C            2.0311   -18.1755    26.7211 C       8      m8     0.0000
    720 C            3.4465   -18.2112    26.7989 C       8      m8     0.0000
    721 C           -3.0853   -31.2000    23.3609 C       8      m8     0.0000
    722 C           -2.3923   -32.4133    23.1191 C       8      m8     0.0000
    723 C           -2.3628   -30.0224    23.6805 C       8      m8     0.0000
    724 C           -0.9473   -30.0582    23.7583 C       8      m8     0.0000
    725 C           -0.9179   -27.6673    24.3198 C       8      m8     0.0000
    726 C           -0.2249   -28.8807    24.0780 C       8      m8     0.0000
    727 C           -0.1954   -26.4898    24.6394 C       8      m8     0.0000
    728 C            1.2201   -26.5256    24.7172 C       8      m8     0.0000
    729 C            1.2495   -24.1347    25.2786 C       8      m8     0.0000
    730 C            1.9425   -25.3480    25.0368 C       8      m8     0.0000
    731 C            1.9720   -22.9572    25.5982 C       8      m8     0.0000
    732 C            3.3875   -22.9929    25.6761 C       8      m8     0.0000
    733 C            3.4169   -20.6021    26.2375 C       8      m8     0.0000
    734 C            4.1099   -21.8154    25.9957 C       8      m8     0.0000
    735 C            4.1394   -19.4245    26.5571 C       8      m8     0.0000
    736 C            5.5549   -19.4603    26.6349 C       8      m8     0.0000
    737 C           -0.9769   -32.4490    23.1969 C       8      m8     0.0000
    738 C           -0.2840   -33.6623    22.9551 C       8      m8     0.0000
    739 C           -0.2544   -31.2715    23.5165 C       8      m8     0.0000
    740 C            1.1610   -31.3072    23.5944 C       8      m8     0.0000
    741 C            1.1905   -28.9164    24.1558 C       8      m8     0.0000
    742 C            1.8834   -30.1297    23.9140 C       8      m8     0.0000
    743 C            1.9130   -27.7389    24.4754 C       8      m8     0.0000
    744 C            3.3284   -27.7746    24.5532 C       8      m8     0.0000
    745 C            3.3579   -25.3838    25.1146 C       8      m8     0.0000
    746 C            4.0508   -26.5971    24.8728 C       8      m8     0.0000
    747 C            4.0804   -24.2062    25.4343 C       8      m8     0.0000
    748 C            5.4958   -24.2420    25.5121 C       8      m8     0.0000
    749 C            5.5253   -21.8511    26.0735 C       8      m8     0.0000
    750 C            6.2182   -23.0644    25.8317 C       8      m8     0.0000
    751 C            6.2478   -20.6736    26.3931 C       8      m8     0.0000
    752 C            7.6632   -20.7093    26.4709 C       8      m8     0.0000
    753 C            1.1314   -33.6981    23.0329 C       8      m8     0.0852
    754 C            1.8245   -34.9114    22.7911 C       8      m8    -0.0852
    755 C            1.8539   -32.5205    23.3526 C       8      m8     0.0000
    756 C            3.2694   -32.5563    23.4304 C       8      m8     0.0000
    757 C            3.2988   -30.1654    23.9918 C       8      m8     0.0000
    758 C            3.9919   -31.3788    23.7500 C       8      m8     0.0000
    759 C            4.0213   -28.9879    24.3114 C       8      m8     0.0000
    760 C            5.4368   -29.0237    24.3892 C       8      m8     0.0000
    761 C            5.4662   -26.6328    24.9507 C       8      m8     0.0000
    762 C            6.1593   -27.8461    24.7089 C       8      m8     0.0000
    763 C            6.1887   -25.4552    25.2703 C       8      m8     0.0000
    764 C            7.6042   -25.4910    25.3481 C       8      m8     0.0000
    765 C            7.6336   -23.1002    25.9095 C       8      m8     0.0000
    766 C            8.3267   -24.3135    25.6677 C       8      m8     0.0000
    767 C            8.3561   -21.9226    26.2291 C       8      m8     0.0852
    768 C            9.7716   -21.9584    26.3070 C       8      m8    -0.0852
    769 C           -8.1522     3.5049   -20.8596 C       9      m9     0.0000
    770 C           -7.3143     3.2146   -19.7531 C       9      m9     0.0000
    771 C           -7.6950     3.2587   -22.1791 C       9      m9     0.0000
    772 C           -6.3999     2.7221   -22.3921 C       9      m9     0.0000
    773 C           -6.7805     2.7663   -24.8180 C       9      m9     0.0000
    774 C           -5.9426     2.4759   -23.7116 C       9      m9     0.0000
    775 C           -6.3233     2.5201   -26.1375 C       9      m9     0.0000
    776 C           -5.0282     1.9835   -26.3506 C       9      m9     0.0000
    777 C           -5.4088     2.0276   -28.7765 C       9      m9     0.0000
    778 C           -4.5709     1.7373   -27.6700 C       9      m9     0.0000
    779 C           -4.9516     1.7814   -30.0960 C       9      m9     0.0000
    780 C           -3.6565     1.2449   -30.3090 C       9      m9     0.0000
    781 C           -4.0371     1.2890   -32.7350 C       9      m9     0.0000
    782 C           -3.1992     0.9987   -31.6285 C       9      m9     0.0000
    783 C           -3.5799     1.0428   -34.0545 C       9      m9     0.0000
    784 C           -2.2848     0.5063   -34.2675 C       9      m9     0.0000
    785 C           -6.0192     2.6780   -19.9661 C       9      m9     0.0000
    786 C           -5.1812     2.3877   -18.8596 C       9      m9     0.0000
    787 C           -5.5619     2.4318   -21.2856 C       9      m9     0.0000
    788 C           -4.2667     1.8953   -21.4986 C       9      m9     0.0000
    789 C           -4.6475     1.9394   -23.9246 C       9      m9     0.0000
    790 C           -3.8095     1.6491   -22.8181 C       9      m9     0.0000
    791 C           -4.1902     1.6932   -25.2441 C       9      m9     0.0000
    792 C           -2.8950     1.1567   -25.4571 C       9      m9     0.0000
    793 C           -3.2758     1.2008   -27.8831 C       9      m9     0.0000
    794 C           -2.4378     0.9105   -26.7766 C       9      m9     0.0000
    795 C           -2.8185     0.9546   -29.2025 C       9      m9     0.0000
    796 C           -1.5233     0.4180   -29.4155 C       9      m9     0.0000
    797 C           -1.9041     0.4622   -31.8415 C       9      m9     0.0000
    798 C           -1.0661     0.1718   -30.7350 C       9      m9     0.0000
    799 C           -1.4468     0.2160   -33.1610 C       9      m9     0.0000
    800 C           -0.1516    -0.3206   -33.3740 C       9      m9     0.0000
    801 C           -3.8860     1.8512   -19.0727 C       9      m9     0.0000
    802 C           -3.0481     1.5608   -17.9662 C       9      m9     0.0000
    803 C           -3.4288     1.6050   -20.3921 C       9      m9     0.0000
    804 C           -2.1336     1.0684   -20.6052 C       9      m9     0.0000
    805 C           -2.5143     1.1125   -23.0311 C       9      m9     0.0000
    806 C           -1.6764     0.8222   -21.9247 C       9      m9     0.0000
    807 C           -2.0571     0.8663   -24.3506 C       9      m9     0.0000
    808 C           -0.7619     0.3298   -24.5636 C       9      m9     0.0000
    809 C           -1.1426     0.3739   -26.9896 C       9      m9     0.0000
    810 C           -0.3047     0.0836   -25.8831 C       9      m9     0.0000
    811 C           -0.6854     0.1277   -28.3091 C       9      m9     0.0000
    812 C            0.6098    -0.4088   -28.5221 C       9      m9     0.0000
    813 C            0.2291    -0.3647   -30.9480 C       9      m9     0.0000
    814 C            1.0670    -0.6550   -29.8416 C       9      m9     0.0000
    815 C            0.6863    -0.6109   -32.2675 C       9      m9     0.0000
    816 C            1.9815    -1.1474   -32.4805 C       9      m9     0.0000
    817 C           -1.7529     1.0243   -18.1792 C       9      m9     0.0000
    818 C           -0.9149     0.7340   -17.0727 C       9      m9     0.0000
    819 C           -1.2957     0.7781   -19.4987 C       9      m9     0.0000
    820 C           -0.0004     0.2416   -19.7117 C       9      m9     0.0000
    821 C           -0.3812     0.2857   -22.1377 C       9      m9     0.0000
    822 C            0.4568    -0.0046   -21.0312 C       9      m9     0.0000
    823 C            0.0760     0.0395   -23.4572 C       9      m9     0.0000
    824 C            1.3713    -0.4971   -23.6701 C       9      m9     0.0000
    825 C            0.9905    -0.4529   -26.0961 C       9      m9     0.0000
    826 C            1.8285    -0.7433   -24.9896 C       9      m9     0.0000
    827 C            1.4477    -0.6991   -27.4156 C       9      m9     0.0000
    828 C            2.7430    -1.2357   -27.6286 C       9      m9     0.0000
    829 C            2.3622    -1.1915   -30.0546 C       9      m9     0.0000
    830 C            3.2002    -1.4819   -28.9481 C       9      m9     0.0000
    831 C            2.8194    -1.4377   -31.3741 C       9      m9     0.0000
    832 C            4.1147    -1.9743   -31.5871 C       9      m9     0.0000
    833 C            0.3802     0.1975   -17.2857 C       9      m9     0.0000
    834 C            1.2182    -0.0929   -16.1793 C       9      m9     0.0000
    835 C            0.8375    -0.0488   -18.6052 C       9      m9     0.0000
    836 C            2.1326    -0.5853   -18.8182 C       9      m9     0.0000
    837 C            1.7519    -0.5412   -21.2442 C       9      m9     0.0000
    838 C            2.5899    -0.8315   -20.1377 C       9      m9     0.0000
    839 C            2.2092    -0.7874   -22.5637 C       9      m9     0.0000
    840 C            3.5043    -1.3239   -22.7767 C       9      m9     0.0000
    841 C            3.1236    -1.2798   -25.2027 C       9      m9     0.0000
    842 C            3.9616    -1.5701   -24.0962 C       9      m9     0.0000
    843 C            3.5809    -1.5260   -26.5221 C       9      m9     0.0000
    844 C            4.8760    -2.0625   -26.7352 C       9      m9     0.0000
    845 C            4.4954    -2.0184   -29.1611 C       9      m9     0.0000
    846 C            5.3333    -2.3087   -28.0546 C       9      m9     0.0000
    847 C            4.9526    -2.2646   -30.4806 C       9      m9     0.0000
    848 C            6.2477    -2.8011   -30.6936 C       9      m9     0.0000
    849 C            2.5133    -0.6294   -16.3923 C       9      m9     0.0852
    850 C            3.3513    -0.9197   -15.2858 C       9      m9    -0.0852
    851 C            2.9706    -0.8756   -17.7118 C       9      m9     0.0000
    852 C            4.2658    -1.4121   -17.9248 C       9      m9     0.0000
    853 C            3.8850    -1.3680   -20.3507 C       9      m9     0.0000
    854 C            4.7230    -1.6584   -19.2442 C       9      m9     0.0000
    855 C            4.3423    -1.6142   -21.6702 C       9      m9     0.0000
    856 C            5.6375    -2.1508   -21.8832 C       9      m9     0.0000
    857 C            5.2567    -2.1066   -24.3092 C       9      m9     0.0000
    858 C            6.0947    -2.3970   -23.2027 C       9      m9     0.0000
    859 C            5.7140    -2.3528   -25.6287 C       9      m9     0.0000
    860 C            7.0092    -2.8894   -25.8417 C       9      m9     0.0000
    861 C            6.6284    -2.8452   -28.2677 C       9      m9     0.0000
    862 C            7.4664    -3.1356   -27.1612 C       9      m9     0.0000
    863 C            7.0857    -3.0914   -29.5872 C       9      m9     0.0852
    864 C            8.3809    -3.6280   -29.8001 C       9      m9    -0.0852
    865 C           27.7806   -31.3183   -31.9451 C      10     m10     0.0000
    866 C           28.9922   -30.9965   -31.2823 C      10     m10     0.0000
    867 C           26.5620   -30.7313   -31.5193 C      10     m10     0.0000
    868 C           26.5550   -29.8227   -30.4308 C      10     m10     0.0000
    869 C           24.1248   -29.5575   -30.6678 C      10     m10     0.0000
    870 C           25.3364   -29.2358   -30.0050 C      10     m10     0.0000
    871 C           22.9062   -28.9706   -30.2421 C      10     m10     0.0000
    872 C           22.8992   -28.0620   -29.1535 C      10     m10     0.0000
    873 C           20.4690   -27.7968   -29.3906 C      10     m10     0.0000
    874 C           21.6806   -27.4750   -28.7278 C      10     m10     0.0000
    875 C           19.2504   -27.2099   -28.9648 C      10     m10     0.0000
    876 C           19.2433   -26.3012   -27.8763 C      10     m10     0.0000
    877 C           16.8132   -26.0361   -28.1133 C      10     m10     0.0000
    878 C           18.0247   -25.7143   -27.4505 C      10     m10     0.0000
    879 C           15.5946   -25.4492   -27.6875 C      10     m10     0.0000
    880 C           15.5875   -24.5405   -26.5990 C      10     m10     0.0000
    881 C           28.9851   -30.0878   -30.1937 C      10     m10     0.0000
    882 C           30.1967   -29.7660   -29.5309 C      10     m10     0.0000
    883 C           27.7665   -29.5009   -29.7680 C      10     m10     0.0000
    884 C           27.7595   -28.5922   -28.6793 C      10     m10     0.0000
    885 C           25.3293   -28.3271   -28.9165 C      10     m10     0.0000
    886 C           26.5409   -28.0053   -28.2536 C      10     m10     0.0000
    887 C           24.1107   -27.7402   -28.4907 C      10     m10     0.0000
    888 C           24.1037   -26.8315   -27.4021 C      10     m10     0.0000
    889 C           21.6735   -26.5664   -27.6392 C      10     m10     0.0000
    890 C           22.8851   -26.2446   -26.9763 C      10     m10     0.0000
    891 C           20.4549   -25.9795   -27.2135 C      10     m10     0.0000
    892 C           20.4479   -25.0708   -26.1248 C      10     m10     0.0000
    893 C           18.0177   -24.8057   -26.3619 C      10     m10     0.0000
    894 C           19.2293   -24.4839   -25.6991 C      10     m10     0.0000
    895 C           16.7991   -24.2187   -25.9362 C      10     m10     0.0000
    896 C           16.7921   -23.3100   -24.8476 C      10     m10     0.0000
    897 C           30.1896   -28.8574   -28.4423 C      10     m10     0.0000
    898 C           31.4012   -28.5356   -27.7795 C      10     m10     0.0000
    899 C           28.9710   -28.2705   -28.0165 C      10     m10     0.0000
    900 C           28.9640   -27.3618   -26.9280 C      10     m10     0.0000
    901 C           26.5338   -27.0966   -27.1650 C      10     m10     0.0000
    902 C           27.7454   -26.7749   -26.5022 C      10     m10     0.0000
    903 C           25.3152   -26.5097   -26.7393 C      10     m10     0.0000
    904 C           25.3082   -25.6011   -25.6507 C      10     m10     0.0000
    905 C           22.8780   -25.3359   -25.8878 C      10     m10     0.0000
    906 C           24.0896   -25.0142   -25.2250 C      10     m10     0.0000
    907 C           21.6594   -24.7490   -25.4620 C      10     m10     0.0000
    908 C           21.6524   -23.8403   -24.3735 C      10     m10     0.0000
    909 C           19.2222   -23.5752   -24.6105 C      10     m10     0.0000
    910 C           20.4338   -23.2534   -23.9477 C      10     m10     0.0000
    911 C           18.0036   -22.9883   -24.1848 C      10     m10     0.0000
    912 C           17.9965   -22.0796   -23.0962 C      10     m10     0.0000
    913 C           31.3941   -27.6270   -26.6909 C      10     m10     0.0000
    914 C           32.6057   -27.3052   -26.0281 C      10     m10     0.0000
    915 C           30.1755   -27.0400   -26.2652 C      10     m10     0.0000
    916 C           30.1685   -26.1313   -25.1766 C      10     m10     0.0000
    917 C           27.7383   -25.8662   -25.4137 C      10     m10     0.0000
    918 C           28.9499   -25.5444   -24.7508 C      10     m10     0.0000
    919 C           26.5197   -25.2793   -24.9879 C      10     m10     0.0000
    920 C           26.5127   -24.3706   -23.8993 C      10     m10     0.0000
    921 C           24.0825   -24.1055   -24.1364 C      10     m10     0.0000
    922 C           25.2941   -23.7837   -23.4736 C      10     m10     0.0000
    923 C           22.8639   -23.5186   -23.7107 C      10     m10     0.0000
    924 C           22.8569   -22.6099   -22.6220 C      10     m10     0.0000
    925 C           20.4267   -22.3448   -22.8592 C      10     m10     0.0000
    926 C           21.6383   -22.0230   -22.1963 C      10     m10     0.0000
    927 C           19.2081   -21.7579   -22.4334 C      10     m10     0.0000
    928 C           19.2011   -20.8492   -21.3448 C      10     m10     0.0000
    929 C           32.5987   -26.3965   -24.9395 C      10     m10     0.0000
    930 C           33.8102   -26.0747   -24.2767 C      10     m10     0.0000
    931 C           31.3801   -25.8096   -24.5138 C      10     m10     0.0000
    932 C           31.3730   -24.9009   -23.4252 C      10     m10     0.0000
    933 C           28.9428   -24.6358   -23.6623 C      10     m10     0.0000
    934 C           30.1544   -24.3140   -22.9995 C      10     m10     0.0000
    935 C           27.7242   -24.0489   -23.2365 C      10     m10     0.0000
    936 C           27.7172   -23.1402   -22.1480 C      10     m10     0.0000
    937 C           25.2870   -22.8750   -22.3850 C      10     m10     0.0000
    938 C           26.4986   -22.5533   -21.7222 C      10     m10     0.0000
    939 C           24.0684   -22.2881   -21.9592 C      10     m10     0.0000
    940 C           24.0614   -21.3795   -20.8707 C      10     m10     0.0000
    941 C           21.6312   -21.1143   -21.1077 C      10     m10     0.0000
    942 C           22.8428   -20.7926   -20.4449 C      10     m10     0.0000
    943 C           20.4126   -20.5274   -20.6820 C      10     m10     0.0000
    944 C           20.4056   -19.6187   -19.5934 C      10     m10     0.0000
    945 C           33.8031   -25.1661   -23.1882 C      10     m10     0.0852
    946 C           35.0147   -24.8443   -22.5253 C      10     m10    -0.0852
    947 C           32.5845   -24.5792   -22.7624 C      10     m10     0.0000
    948 C           32.5775   -23.6705   -21.6738 C      10     m10     0.0000
    949 C           30.1473   -23.4053   -21.9109 C      10     m10     0.0000
    950 C           31.3589   -23.0835   -21.2480 C      10     m10     0.0000
    951 C           28.9287   -22.8184   -21.4852 C      10     m10     0.0000
    952 C           28.9217   -21.9097   -20.3965 C      10     m10     0.0000
    953 C           26.4915   -21.6446   -20.6336 C      10     m10     0.0000
    954 C           27.7031   -21.3228   -19.9708 C      10     m10     0.0000
    955 C           25.2729   -21.0577   -20.2079 C      10     m10     0.0000
    956 C           25.2659   -20.1490   -19.1193 C      10     m10     0.0000
    957 C           22.8357   -19.8839   -19.3564 C      10     m10     0.0000
    958 C           24.0473   -19.5621   -18.6935 C      10     m10     0.0000
    959 C           21.6171   -19.2970   -18.9306 C      10     m10     0.0852
    960 C           21.6101   -18.3883   -17.8420 C      10     m10    -0.0852
    961 B           37.5000   -37.5000    37.5000 B      11     BOX     0.0000
    962 B          -37.5000   -37.5000    37.5000 B      11     BOX     0.0000
    963 B          -37.5000    37.5000    37.5000 B      11     BOX     0.0000
    964 B           37.5000    37.5000    37.5000 B      11     BOX     0.0000
    965 B           37.5000   -37.5000   -37.5000 B      11     BOX     0.0000
    966 B          -37.5000   -37.5000   -37.5000 B      11     BOX     0.0000
    967 B          -37.5000    37.5000   -37.5000 B      11     BOX     0.0000
    968 B           37.5000    37.5000   -37.5000 B      11     BOX     0.0000
@<TRIPOS>BOND
     1      1      2      1
     2      1      3      1
     3      2     17      1
     4      3      4      1
     5      4      6      1
     6      4     19      1
     7      5      6      1
     8      5      7      1
     9      6     21      1
    10      7      8      1
    11      8     10      1
    12      8     23      1
    13      9     10      1
    14      9     11      1
    15     10     25      1
    16     11     12      1
    17     12     14      1
    18     12     27      1
    19     13     14      1
    20     13     15      1
    21     14     29      1
    22     15     16      1
    23     16     31      1
    24     17     18      1
    25     17     19      1
    26     18     33      1
    27     19     20      1
    28     20     22      1
    29     20     35      1
    30     21     22      1
    31     21     23      1
    32     22     37      1
    33     23     24      1
    34     24     26      1
    35     24     39      1
    36     25     26      1
    37     25     27      1
    38     26     41      1
    39     27     28      1
    40     28     30      1
    41     28     43      1
    42     29     30      1
    43     29     31      1
    44     30     45      1
    45     31     32      1
    46     32     47      1
    47     33     34      1
    48     33     35      1
    49     34     49      1
    50     35     36      1
    51     36     38      1
    52     36     51      1
    53     37     38      1
    54     37     39      1
    55     38     53      1
    56     39     40      1
    57     40     42      1
    58     40     55      1
    59     41     42      1
    60     41     43      1
    61     42     57      1
    62     43     44      1
    63     44     46      1
    64     44     59      1
    65     45     46      1
    66     45     47      1
    67     46     61      1
    68     47     48      1
    69     48     63      1
    70     49     50      1
    71     49     51      1
    72     50     65      1
    73     51     52      1
    74     52     54      1
    75     52     67      1
    76     53     54      1
    77     53     55      1
    78     54     69      1
    79     55     56      1
    80     56     58      1
    81     56     71      1
    82     57     58      1
    83     57     59      1
    84     58     73      1
    85     59     60      1
    86     60     62      1
    87     60     75      1
    88     61     62      1
    89     61     63      1
    90     62     77      1
    91     63     64      1
    92     64     79      1
    93     65     66      1
    94     65     67      1
    95     66     81      1
    96     67     68      1
    97     68     70      1
    98     68     83      1
    99     69     70      1
   100     69     71      1
   101     70     85      1
   102     71     72      1
   103     72     74      1
   104     72     87      1
   105     73     74      1
   106     73     75      1
   107     74     89      1
   108     75     76      1
   109     76     78      1
   110     76     91      1
   111     77     78      1
   112     77     79      1
   113     78     93      1
   114     79     80      1
   115     80     95      1
   116     81     82      1
   117     81     83      1
   118     83     84      1
   119     84     86      1
   120     85     86      1
   121     85     87      1
   122     87     88      1
   123     88     90      1
   124     89     90      1
   125     89     91      1
   126     91     92      1
   127     92     94      1
   128     93     94      1
   129     93     95      1
   130     95     96      1
   131     97     98      1
   132     97     99      1
   133     98    113      1
   134     99    100      1
   135    100    102      1
   136    100    115      1
   137    101    102      1
   138    101    103      1
   139    102    117      1
   140    103    104      1
   141    104    106      1
   142    104    119      1
   143    105    106      1
   144    105    107      1
   145    106    121      1
   146    107    108      1
   147    108    110      1
   148    108    123      1
   149    109    110      1
   150    109    111      1
   151    110    125      1
   152    111    112      1
   153    112    127      1
   154    113    114      1
   155    113    115      1
   156    114    129      1
   157    115    116      1
   158    116    118      1
   159    116    131      1
   160    117    118      1
   161    117    119      1
   162    118    133      1
   163    119    120      1
   164    120    122      1
   165    120    135      1
   166    121    122      1
   167    121    123      1
   168    122    137      1
   169    123    124      1
   170    124    126      1
   171    124    139      1
   172    125    126      1
   173    125    127      1
   174    126    141      1
   175    127    128      1
   176    128    143      1
   177    129    130      1
   178    129    131      1
   179    130    145      1
   180    131    132      1
   181    132    134      1
   182    132    147      1
   183    133    134      1
   184    133    135      1
   185    134    149      1
   186    135    136      1
   187    136    138      1
   188    136    151      1
   189    137    138      1
   190    137    139      1
   191    138    153      1
   192    139    140      1
   193    140    142      1
   194    140    155      1
   195    141    142      1
   196    141    143      1
   197    142    157      1
   198    143    144      1
   199    144    159      1
   200    145    146      1
   201    145    147      1
   202    146    161      1
   203    147    148      1
   204    148    150      1
   205    148    163      1
   206    149    150      1
   207    149    151      1
   208    150    165      1
   209    151    152      1
   210    152    154      1
   211    152    167      1
   212    153    154      1
   213    153    155      1
   214    154    169      1
   215    155    156      1
   216    156    158      1
   217    156    171      1
   218    157    158      1
   219    157    159      1
   220    158    173      1
   221    159    160      1
   222    160    175      1
   223    161    162      1
   224    161    163      1
   225    162    177      1
   226    163    164      1
   227    164    166      1
   228    164    179      1
   229    165    166      1
   230    165    167      1
   231    166    181      1
   232    167    168      1
   233    168    170      1
   234    168    183      1
   235    169    170      1
   236    169    171      1
   237    170    185      1
   238    171    172      1
   239    172    174      1
   240    172    187      1
   241    173    174      1
   242    173    175      1
   243    174    189      1
   244    175    176      1
   245    176    191      1
   246    177    178      1
   247    177    179      1
   248    179    180      1
   249    180    182      1
   250    181    182      1
   251    181    183      1
   252    183    184      1
   253    184    186      1
   254    185    186      1
   255    185    187      1
   256    187    188      1
   257    188    190      1
   258    189    190      1
   259    189    191      1
   260    191    192      1
   261    193    194      1
   262    193    195      1
   263    194    209      1
   264    195    196      1
   265    196    198      1
   266    196    211      1
   267    197    198      1
   268    197    199      1
   269    198    213      1
   270    199    200      1
   271    200    202      1
   272    200    215      1
   273    201    202      1
   274    201    203      1
   275    202    217      1
   276    203    204      1
   277    204    206      1
   278    204    219      1
   279    205    206      1
   280    205    207      1
   281    206    221      1
   282    207    208      1
   283    208    223      1
   284    209    210      1
   285    209    211      1
   286    210    225      1
   287    211    212      1
   288    212    214      1
   289    212    227      1
   290    213    214      1
   291    213    215      1
   292    214    229      1
   293    215    216      1
   294    216    218      1
   295    216    231      1
   296    217    218      1
   297    217    219      1
   298    218    233      1
   299    219    220      1
   300    220    222      1
   301    220    235      1
   302    221    222      1
   303    221    223      1
   304    222    237      1
   305    223    224      1
   306    224    239      1
   307    225    226      1
   308    225    227      1
   309    226    241      1
   310    227    228      1
   311    228    230      1
   312    228    243      1
   313    229    230      1
   314    229    231      1
   315    230    245      1
   316    231    232      1
   317    232    234      1
   318    232    247      1
   319    233    234      1
   320    233    235      1
   321    234    249      1
   322    235    236      1
   323    236    238      1
   324    236    251      1
   325    237    238      1
   326    237    239      1
   327    238    253      1
   328    239    240      1
   329    240    255      1
   330    241    242      1
   331    241    243      1
   332    242    257      1
   333    243    244      1
   334    244    246      1
   335    244    259      1
   336    245    246      1
   337    245    247      1
   338    246    261      1
   339    247    248      1
   340    248    250      1
   341    248    263      1
   342    249    250      1
   343    249    251      1
   344    250    265      1
   345    251    252      1
   346    252    254      1
   347    252    267      1
   348    253    254      1
   349    253    255      1
   350    254    269      1
   351    255    256      1
   352    256    271      1
   353    257    258      1
   354    257    259      1
   355    258    273      1
   356    259    260      1
   357    260    262      1
   358    260    275      1
   359    261    262      1
   360    261    263      1
   361    262    277      1
   362    263    264      1
   363    264    266      1
   364    264    279      1
   365    265    266      1
   366    265    267      1
   367    266    281      1
   368    267    268      1
   369    268    270      1
   370    268    283      1
   371    269    270      1
   372    269    271      1
   373    270    285      1
   374    271    272      1
   375    272    287      1
   376    273    274      1
   377    273    275      1
   378    275    276      1
   379    276    278      1
   380    277    278      1
   381    277    279      1
   382    279    280      1
   383    280    282      1
   384    281    282      1
   385    281    283      1
   386    283    284      1
   387    284    286      1
   388    285    286      1
   389    285    287      1
   390    287    288      1
   391    289    290      1
   392    289    291      1
   393    290    305      1
   394    291    292      1
   395    292    294      1
   396    292    307      1
   397    293    294      1
   398    293    295      1
   399    294    309      1
   400    295    296      1
   401    296    298      1
   402    296    311      1
   403    297    298      1
   404    297    299      1
   405    298    313      1
   406    299    300      1
   407    300    302      1
   408    300    315      1
   409    301    302      1
   410    301    303      1
   411    302    317      1
   412    303    304      1
   413    304    319      1
   414    305    306      1
   415    305    307      1
   416    306    321      1
   417    307    308      1
   418    308    310      1
   419    308    323      1
   420    309    310      1
   421    309    311      1
   422    310    325      1
   423    311    312      1
   424    312    314      1
   425    312    327      1
   426    313    314      1
   427    313    315      1
   428    314    329      1
   429    315    316      1
   430    316    318      1
   431    316    331      1
   432    317    318      1
   433    317    319      1
   434    318    333      1
   435    319    320      1
   436    320    335      1
   437    321    322      1
   438    321    323      1
   439    322    337      1
   440    323    324      1
   441    324    326      1
   442    324    339      1
   443    325    326      1
   444    325    327      1
   445    326    341      1
   446    327    328      1
   447    328    330      1
   448    328    343      1
   449    329    330      1
   450    329    331      1
   451    330    345      1
   452    331    332      1
   453    332    334      1
   454    332    347      1
   455    333    334      1
   456    333    335      1
   457    334    349      1
   458    335    336      1
   459    336    351      1
   460    337    338      1
   461    337    339      1
   462    338    353      1
   463    339    340      1
   464    340    342      1
   465    340    355      1
   466    341    342      1
   467    341    343      1
   468    342    357      1
   469    343    344      1
   470    344    346      1
   471    344    359      1
   472    345    346      1
   473    345    347      1
   474    346    361      1
   475    347    348      1
   476    348    350      1
   477    348    363      1
   478    349    350      1
   479    349    351      1
   480    350    365      1
   481    351    352      1
   482    352    367      1
   483    353    354      1
   484    353    355      1
   485    354    369      1
   486    355    356      1
   487    356    358      1
   488    356    371      1
   489    357    358      1
   490    357    359      1
   491    358    373      1
   492    359    360      1
   493    360    362      1
   494    360    375      1
   495    361    362      1
   496    361    363      1
   497    362    377      1
   498    363    364      1
   499    364    366      1
   500    364    379      1
   501    365    366      1
   502    365    367      1
   503    366    381      1
   504    367    368      1
   505    368    383      1
   506    369    370      1
   507    369    371      1
   508    371    372      1
   509    372    374      1
   510    373    374      1
   511    373    375      1
   512    375    376      1
   513    376    378      1
   514    377    378      1
   515    377    379      1
   516    379    380      1
   517    380    382      1
   518    381    382      1
   519    381    383      1
   520    383    384      1
   521    385    386      1
   522    385    387      1
   523    386    401      1
   524    387    388      1
   525    388    390      1
   526    388    403      1
   527    389    390      1
   528    389    391      1
   529    390    405      1
   530    391    392      1
   531    392    394      1
   532    392    407      1
   533    393    394      1
   534    393    395      1
   535    394    409      1
   536    395    396      1
   537    396    398      1
   538    396    411      1
   539    397    398      1
   540    397    399      1
   541    398    413      1
   542    399    400      1
   543    400    415      1
   544    401    402      1
   545    401    403      1
   546    402    417      1
   547    403    404      1
   548    404    406      1
   549    404    419      1
   550    405    406      1
   551    405    407      1
   552    406    421      1
   553    407    408      1
   554    408    410      1
   555    408    423      1
   556    409    410      1
   557    409    411      1
   558    410    425      1
   559    411    412      1
   560    412    414      1
   561    412    427      1
   562    413    414      1
   563    413    415      1
   564    414    429      1
   565    415    416      1
   566    416    431      1
   567    417    418      1
   568    417    419      1
   569    418    433      1
   570    419    420      1
   571    420    422      1
   572    420    435      1
   573    421    422      1
   574    421    423      1
   575    422    437      1
   576    423    424      1
   577    424    426      1
   578    424    439      1
   579    425    426      1
   580    425    427      1
   581    426    441      1
   582    427    428      1
   583    428    430      1
   584    428    443      1
   585    429    430      1
   586    429    431      1
   587    430    445      1
   588    431    432      1
   589    432    447      1
   590    433    434      1
   591    433    435      1
   592    434    449      1
   593    435    436      1
   594    436    438      1
   595    436    451      1
   596    437    438      1
   597    437    439      1
   598    438    453      1
   599    439    440      1
   600    440    442      1
   601    440    455      1
   602    441    442      1
   603    441    443      1
   604    442    457      1
   605    443    444      1
   606    444    446      1
   607    444    459      1
   608    445    446      1
   609    445    447      1
   610    446    461      1
   611    447    448      1
   612    448    463      1
   613    449    450      1
   614    449    451      1
   615    450    465      1
   616    451    452      1
   617    452    454      1
   618    452    467      1
   619    453    454      1
   620    453    455      1
   621    454    469      1
   622    455    456      1
   623    456    458      1
   624    456    471      1
   625    457    458      1
   626    457    459      1
   627    458    473      1
   628    459    460      1
   629    460    462      1
   630    460    475      1
   631    461    462      1
   632    461    463      1
   633    462    477      1
   634    463    464      1
   635    464    479      1
   636    465    466      1
   637    465    467      1
   638    467    468      1
   639    468    470      1
   640    469    470      1
   641    469    471      1
   642    471    472      1
   643    472    474      1
   644    473    474      1
   645    473    475      1
   646    475    476      1
   647    476    478      1
   648    477    478      1
   649    477    479      1
   650    479    480      1
   651    481    482      1
   652    481    483      1
   653    482    497      1
   654    483    484      1
   655    484    486      1
   656    484    499      1
   657    485    486      1
   658    485    487      1
   659    486    501      1
   660    487    488      1
   661    488    490      1
   662    488    503      1
   663    489    490      1
   664    489    491      1
   665    490    505      1
   666    491    492      1
   667    492    494      1
   668    492    507      1
   669    493    494      1
   670    493    495      1
   671    494    509      1
   672    495    496      1
   673    496    511      1
   674    497    498      1
   675    497    499      1
   676    498    513      1
   677    499    500      1
   678    500    502      1
   679    500    515      1
   680    501    502      1
   681    501    503      1
   682    502    517      1
   683    503    504      1
   684    504    506      1
   685    504    519      1
   686    505    506      1
   687    505    507      1
   688    506    521      1
   689    507    508      1
   690    508    510      1
   691    508    523      1
   692    509    510      1
   693    509    511      1
   694    510    525      1
   695    511    512      1
   696    512    527      1
   697    513    514      1
   698    513    515      1
   699    514    529      1
   700    515    516      1
   701    516    518      1
   702    516    531      1
   703    517    518      1
   704    517    519      1
   705    518    533      1
   706    519    520      1
   707    520    522      1
   708    520    535      1
   709    521    522      1
   710    521    523      1
   711    522    537      1
   712    523    524      1
   713    524    526      1
   714    524    539      1
   715    525    526      1
   716    525    527      1
   717    526    541      1
   718    527    528      1
   719    528    543      1
   720    529    530      1
   721    529    531      1
   722    530    545      1
   723    531    532      1
   724    532    534      1
   725    532    547      1
   726    533    534      1
   727    533    535      1
   728    534    549      1
   729    535    536      1
   730    536    538      1
   731    536    551      1
   732    537    538      1
   733    537    539      1
   734    538    553      1
   735    539    540      1
   736    540    542      1
   737    540    555      1
   738    541    542      1
   739    541    543      1
   740    542    557      1
   741    543    544      1
   742    544    559      1
   743    545    546      1
   744    545    547      1
   745    546    561      1
   746    547    548      1
   747    548    550      1
   748    548    563      1
   749    549    550      1
   750    549    551      1
   751    550    565      1
   752    551    552      1
   753    552    554      1
   754    552    567      1
   755    553    554      1
   756    553    555      1
   757    554    569      1
   758    555    556      1
   759    556    558      1
   760    556    571      1
   761    557    558      1
   762    557    559      1
   763    558    573      1
   764    559    560      1
   765    560    575      1
   766    561    562      1
   767    561    563      1
   768    563    564      1
   769    564    566      1
   770    565    566      1
   771    565    567      1
   772    567    568      1
   773    568    570      1
   774    569    570      1
   775    569    571      1
   776    571    572      1
   777    572    574      1
   778    573    574      1
   779    573    575      1
   780    575    576      1
   781    577    578      1
   782    577    579      1
   783    578    593      1
   784    579    580      1
   785    580    582      1
   786    580    595      1
   787    581    582      1
   788    581    583      1
   789    582    597      1
   790    583    584      1
   791    584    586      1
   792    584    599      1
   793    585    586      1
   794    585    587      1
   795    586    601      1
   796    587    588      1
   797    588    590      1
   798    588    603      1
   799    589    590      1
   800    589    591      1
   801    590    605      1
   802    591    592      1
   803    592    607      1
   804    593    594      1
   805    593    595      1
   806    594    609      1
   807    595    596      1
   808    596    598      1
   809    596    611      1
   810    597    598      1
   811    597    599      1
   812    598    613      1
   813    599    600      1
   814    600    602      1
   815    600    615      1
   816    601    602      1
   817    601    603      1
   818    602    617      1
   819    603    604      1
   820    604    606      1
   821    604    619      1
   822    605    606      1
   823    605    607      1
   824    606    621      1
   825    607    608      1
   826    608    623      1
   827    609    610      1
   828    609    611      1
   829    610    625      1
   830    611    612      1
   831    612    614      1
   832    612    627      1
   833    613    614      1
   834    613    615      1
   835    614    629      1
   836    615    616      1
   837    616    618      1
   838    616    631      1
   839    617    618      1
   840    617    619      1
   841    618    633      1
   842    619    620      1
   843    620    622      1
   844    620    635      1
   845    621    622      1
   846    621    623      1
   847    622    637      1
   848    623    624      1
   849    624    639      1
   850    625    626      1
   851    625    627      1
   852    626    641      1
   853    627    628      1
   854    628    630      1
   855    628    643      1
   856    629    630      1
   857    629    631      1
   858    630    645      1
   859    631    632      1
   860    632    634      1
   861    632    647      1
   862    633    634      1
   863    633    635      1
   864    634    649      1
   865    635    636      1
   866    636    638      1
   867    636    651      1
   868    637    638      1
   869    637    639      1
   870    638    653      1
   871    639    640      1
   872    640    655      1
   873    641    642      1
   874    641    643      1
   875    642    657      1
   876    643    644      1
   877    644    646      1
   878    644    659      1
   879    645    646      1
   880    645    647      1
   881    646    661      1
   882    647    648      1
   883    648    650      1
   884    648    663      1
   885    649    650      1
   886    649    651      1
   887    650    665      1
   888    651    652      1
   889    652    654      1
   890    652    667      1
   891    653    654      1
   892    653    655      1
   893    654    669      1
   894    655    656      1
   895    656    671      1
   896    657    658      1
   897    657    659      1
   898    659    660      1
   899    660    662      1
   900    661    662      1
   901    661    663      1
   902    663    664      1
   903    664    666      1
   904    665    666      1
   905    665    667      1
   906    667    668      1
   907    668    670      1
   908    669    670      1
   909    669    671      1
   910    671    672      1
   911    673    674      1
   912    673    675      1
   913    674    689      1
   914    675    676      1
   915    676    678      1
   916    676    691      1
   917    677    678      1
   918    677    679      1
   919    678    693      1
   920    679    680      1
   921    680    682      1
   922    680    695      1
   923    681    682      1
   924    681    683      1
   925    682    697      1
   926    683    684      1
   927    684    686      1
   928    684    699      1
   929    685    686      1
   930    685    687      1
   931    686    701      1
   932    687    688      1
   933    688    703      1
   934    689    690      1
   935    689    691      1
   936    690    705      1
   937    691    692      1
   938    692    694      1
   939    692    707      1
   940    693    694      1
   941    693    695      1
   942    694    709      1
   943    695    696      1
   944    696    698      1
   945    696    711      1
   946    697    698      1
   947    697    699      1
   948    698    713      1
   949    699    700      1
   950    700    702      1
   951    700    715      1
   952    701    702      1
   953    701    703      1
   954    702    717      1
   955    703    704      1
   956    704    719      1
   957    705    706      1
   958    705    707      1
   959    706    721      1
   960    707    708      1
   961    708    710      1
   962    708    723      1
   963    709    710      1
   964    709    711      1
   965    710    725      1
   966    711    712      1
   967    712    714      1
   968    712    727      1
   969    713    714      1
   970    713    715      1
   971    714    729      1
   972    715    716      1
   973    716    718      1
   974    716    731      1
   975    717    718      1
   976    717    719      1
   977    718    733      1
   978    719    720      1
   979    720    735      1
   980    721    722      1
   981    721    723      1
   982    722    737      1
   983    723    724      1
   984    724    726      1
   985    724    739      1
   986    725    726      1
   987    725    727      1
   988    726    741      1
   989    727    728      1
   990    728    730      1
   991    728    743      1
   992    729    730      1
   993    729    731      1
   994    730    745      1
   995    731    732      1
   996    732    734      1
   997    732    747      1
   998    733    734      1
   999    733    735      1
  1000    734    749      1
  1001    735    736      1
  1002    736    751      1
  1003    737    738      1
  1004    737    739      1
  1005    738    753      1
  1006    739    740      1
  1007    740    742      1
  1008    740    755      1
  1009    741    742      1
  1010    741    743      1
  1011    742    757      1
  1012    743    744      1
  1013    744    746      1
  1014    744    759      1
  1015    745    746      1
  1016    745    747      1
  1017    746    761      1
  1018    747    748      1
  1019    748    750      1
  1020    748    763      1
  1021    749    750      1
  1022    749    751      1
  1023    750    765      1
  1024    751    752      1
  1025    752    767      1
  1026    753    754      1
  1027    753    755      1
  1028    755    756      1
  1029    756    758      1
  1030    757    758      1
  1031    757    759      1
  1032    759    760      1
  1033    760    762      1
  1034    761    762      1
  1035    761    763      1
  1036    763    764      1
  1037    764    766      1
  1038    765    766      1
  1039    765    767      1
  1040    767    768      1
  1041    769    770      1
  1042    769    771      1
  1043    770    785      1
  1044    771    772      1
  1045    772    774      1
  1046    772    787      1
  1047    773    774      1
  1048    773    775      1
  1049    774    789      1
  1050    775    776      1
  1051    776    778      1
  1052    776    791      1
  1053    777    778      1
  1054    777    779      1
  1055    778    793      1
  1056    779    780      1
  1057    780    782      1
  1058    780    795      1
  1059    781    782      1
  1060    781    783      1
  1061    782    797      1
  1062    783    784      1
  1063    784    799      1
  1064    785    786      1
  1065    785    787      1
  1066    786    801      1
  1067    787    788      1
  1068    788    790      1
  1069    788    803      1
  1070    789    790      1
  1071    789    791      1
  1072    790    805      1
  1073    791    792      1
  1074    792    794      1
  1075    792    807      1
  1076    793    794      1
  1077    793    795      1
  1078    794    809      1
  1079    795    796      1
  1080    796    798      1
  1081    796    811      1
  1082    797    798      1
  1083    797    799      1
  1084    798    813      1
  1085    799    800      1
  1086    800    815      1
  1087    801    802      1
  1088    801    803      1
  1089    802    817      1
  1090    803    804      1
  1091    804    806      1
  1092    804    819      1
  1093    805    806      1
  1094    805    807      1
  1095    806    821      1
  1096    807    808      1
  1097    808    810      1
  1098    808    823      1
  1099    809    810      1
  1100    809    811      1
  1101    810    825      1
  1102    811    812      1
  1103    812    814      1
  1104    812    827      1
  1105    813    814      1
  1106    813    815      1
  1107    814    829      1
  1108    815    816      1
  1109    816    831      1
  1110    817    818      1
  1111    817    819      1
  1112    818    833      1
  1113    819    820      1
  1114    820    822      1
  1115    820    835      1
  1116    821    822      1
  1117    821    823      1
  1118    822    837      1
  1119    823    824      1
  1120    824    826      1
  1121    824    839      1
  1122    825    826      1
  1123    825    827      1
  1124    826    841      1
  1125    827    828      1
  1126    828    830      1
  1127    828    843      1
  1128    829    830      1
  1129    829    831      1
  1130    830    845      1
  1131    831    832      1
  1132    832    847      1
  1133    833    834      1
  1134    833    835      1
  1135    834    849      1
  1136    835    836      1
  1137    836    838      1
  1138    836    851      1
  1139    837    838      1
  1140    837    839      1
  1141    838    853      1
  1142    839    840      1
  1143    840    842      1
  1144    840    855      1
  1145    841    842      1
  1146    841    843      1
  1147    842    857      1
  1148    843    844      1
  1149    844    846      1
  1150    844    859      1
  1151    845    846      1
  1152    845    847      1
  1153    846    861      1
  1154    847    848      1
  1155    848    863      1
  1156    849    850      1
  1157    849    851      1
  1158    851    852      1
  1159    852    854      1
  1160    853    854      1
  1161    853    855      1
  1162    855    856      1
  1163    856    858      1
  1164    857    858      1
  1165    857    859      1
  1166    859    860      1
  1167    860    862      1
  1168    861    862      1
  1169    861    863      1
  1170    863    864      1
  1171    865    866      1
  1172    865    867      1
  1173    866    881      1
  1174    867    868      1
  1175    868    870      1
  1176    868    883      1
  1177    869    870      1
  1178    869    871      1
  1179    870    885      1
  1180    871    872      1
  1181    872    874      1
  1182    872    887      1
  1183    873    874      1
  1184    873    875      1
  1185    874    889      1
  1186    875    876      1
  1187    876    878      1
  1188    876    891      1
  1189    877    878      1
  1190    877    879      1
  1191    878    893      1
  1192    879    880      1
  1193    880    895      1
  1194    881    882      1
  1195    881    883      1
  1196    882    897      1
  1197    883    884      1
  1198    884    886      1
  1199    884    899      1
  1200    885    886      1
  1201    885    887      1
  1202    886    901      1
  1203    887    888      1
  1204    888    890      1
  1205    888    903      1
  1206    889    890      1
  1207    889    891      1
  1208    890    905      1
  1209    891    892      1
  1210    892    894      1
  1211    892    907      1
  1212    893    894      1
  1213    893    895      1
  1214    894    909      1
  1215    895    896      1
  1216    896    911      1
  1217    897    898      1
  1218    897    899      1
  1219    898    913      1
  1220    899    900      1
  1221    900    902      1
  1222    900    915      1
  1223    901    902      1
  1224    901    903      1
  1225    902    917      1
  1226    903    904      1
  1227    904    906      1
  1228    904    919      1
  1229    905    906      1
  1230    905    907      1
  1231    906    921      1
  1232    907    908      1
  1233    908    910      1
  1234    908    923      1
  1235    909    910      1
  1236    909    911      1
  1237    910    925      1
  1238    911    912      1
  1239    912    927      1
  1240    913    914      1
  1241    913    915      1
  1242    914    929      1
  1243    915    916      1
  1244    916    918      1
  1245    916    931      1
  1246    917    918      1
  1247    917    919      1
  1248    918    933      1
  1249    919    920      1
  1250    920    922      1
  1251    920    935      1
  1252    921    922      1
  1253    921    923      1
  1254    922    937      1
  1255    923    924      1
  1256    924    926      1
  1257    924    939      1
  1258    925    926      1
  1259    925    927      1
  1260    926    941      1
  1261    927    928      1
  1262    928    943      1
  1263    929    930      1
  1264    929    931      1
  1265    930    945      1
  1266    931    932      1
  1267    932    934      1
  1268    932    947      1
  1269    933    934      1
  1270    933    935      1
  1271    934    949      1
  1272    935    936      1
  1273    936    938      1
  1274    936    951      1
  1275    937    938      1
  1276    937    939      1
  1277    938    953      1
  1278    939    940      1
  1279    940    942      1
  1280    940    955      1
  1281    941    942      1
  1282    941    943      1
  1283    942    957      1
  1284    943    944      1
  1285    944    959      1
  1286    945    946      1
  1287    945    947      1
  1288    947    948      1
  1289    948    950      1
  1290    949    950      1
  1291    949    951      1
  1292    951    952      1
  1293    952    954      1
  1294    953    954      1
  1295    953    955      1
  1296    955    956      1
  1297    956    958      1
  1298    957    958      1
  1299    957    959      1
  1300    959    960      1
  1301    961    962     du
  1302    962    963     du
  1303    963    964     du
  1304    964    961     du
  1305    965    966     du
  1306    966    967     du
  1307    967    968     du
  1308    968    965     du
  1309    964    968     du
  1310    965    961     du
  1311    963    967     du
  1312    966    962     du
