@<TRIPOS>MOLECULE
LAMMPS data file via write_data, version 29 Oct 2020, timestep = 100 > lmp2SYBYLmol2 v3.0 / 24 May 2023 w/remove_PBC_bonds=True
  2636 2966    0    0    0
SMALL
NO_CHARGES
****
Energy = 0

@<TRIPOS>ATOM
      1 C          -14.7373   -12.9429   -10.8664 C       6      r6     0.0042
      2 C          -13.6629   -12.6750   -13.9881 C       0      r0     0.0025
      3 C          -13.2865   -11.2656   -13.6618 C       0      r0    -0.0198
      4 C          -13.1558   -10.3593   -14.6616 C       0      r0     0.0041
      5 C          -13.1314   -13.9463   -13.5279 C       0      r0     0.0006
      6 H          -13.0073   -10.9940   -12.6187 H       0      r0     0.0223
      7 C           -9.0988   -11.5729   -10.9458 C       0      r0    -0.0207
      8 H           -8.6852   -12.7848   -12.5219 H       0      r0     0.0254
      9 H           -8.0383   -11.2349   -11.3360 H       0      r0     0.0211
     10 C           -8.2697   -10.9370   -13.6979 C       0      r0    -0.0007
     11 C           -7.9140   -12.1458   -12.8994 C       0      r0    -0.0226
     12 C           -6.6469   -12.4676   -13.2660 C       0      r0     0.0018
     13 C           -5.4750   -12.5803   -13.8559 C       0      r0     0.0325
     14 C           -5.2869   -11.4844   -14.8556 C       0      r0    -0.0068
     15 C           -4.8158   -13.7179   -14.0054 C       0      r0    -0.0253
     16 H           -4.9007   -10.4484   -14.7883 H       0      r0     0.0300
     17 C           -3.6471   -13.4190   -13.3612 C       0      r0     0.0544
     18 H           -2.7276   -13.2874   -13.8411 H       0      r0     0.0385
     19 C           -3.2099   -14.2164   -12.3661 C       0      r0    -0.0197
     20 O           -2.8636   -11.2142   -12.5907 O       6      r6    -0.4848
     21 C           -1.9091    14.2319   -11.8033 C       0      r0     0.0041
     22 C           -1.3601   -11.8677   -12.4178 C       6      r6     0.1913
     23 C           -1.0133   -13.2359   -12.4076 C       0      r0    -0.0663
     24 C           -0.4506   -10.5920   -12.3374 C       6      r6    -0.0395
     25 H           -0.0673   -10.4317   -14.7242 H       0      r0     0.0191
     26 H           -0.0206   -13.3873   -12.4286 H       0      r0     0.0201
     27 H            0.4551   -10.6851   -11.7046 H       0      r0     0.0151
     28 H            1.4907   -14.1277   -10.7816 H       0      r0     0.0279
     29 H            1.3682   -11.0536   -13.8557 H       0      r0     0.0162
     30 C            1.9051   -11.8074   -14.0289 C       0      r0    -0.0248
     31 C            2.6098   -12.1973   -11.4337 C       0      r0     0.0000
     32 C            2.7863   -12.3778   -13.0190 C       0      r0     0.0041
     33 C            3.8115   -13.4177   -13.0919 C       0      r0    -0.0284
     34 C            3.9006   -11.6611   -10.8950 C       0      r0     0.0127
     35 C            4.7126   -13.5930   -14.2422 C       6      r6     0.0018
     36 C            5.2533   -11.3779   -10.7001 C       6      r6     0.0004
     37 C            6.6656   -12.1138   -14.5022 C       6      r6     0.0012
     38 C            6.6502   -14.2218   -13.4410 C       6      r6     0.0102
     39 C            7.2673   -12.9658   -13.6100 C       6      r6     0.0032
     40 C            7.9785   -10.4220   -14.2866 C       0      r0     0.0148
     41 C            8.0908    14.1928   -11.5335 C       6      r6     0.0086
     42 C            8.7331   -12.7941   -13.3877 C       6      r6    -0.0220
     43 H            9.4410   -12.4143   -14.1236 H       0      r0     0.0261
     44 C            9.1876   -13.5993   -12.4052 C       6      r6     0.0009
     45 C           10.5954   -13.9146   -11.9151 C       6      r6    -0.0004
     46 C           11.3447   -10.6653   -13.4707 C       7      r7     0.0459
     47 C           11.3056   -12.6873   -14.8498 C       0      r0     0.0127
     48 C           11.9069   -12.0748   -13.6439 C       7      r7    -0.0070
     49 C           13.1786   -11.3035   -11.0005 C       7      r7    -0.0004
     50 C           13.2569   -12.6496   -11.5740 C       7      r7    -0.0025
     51 C           13.1991   -12.7947   -12.9722 C       7      r7     0.0046
     52 C           13.6288   -13.9830   -11.3330 C       7      r7    -0.0010
     53 C           14.1337   -12.8744   -14.0954 C       0      r0     0.0023
     54 C           14.9659   -13.9951   -11.5798 C       7      r7    -0.0024
     55 C          -15.0365   -12.6776   -14.7904 C       0      r0    -0.0002
     56 C           15.0483    -7.7754   -14.4235 C       0      r0    -0.0238
     57 H          -13.7150    -8.9661   -12.2069 H       0      r0     0.0243
     58 C          -13.2702    -7.5324   -11.0846 C       0      r0     0.0045
     59 C          -13.0707    -8.2568   -12.0530 C       0      r0    -0.0258
     60 H          -12.5510    -6.8173   -14.0987 H       0      r0     0.0184
     61 C          -11.9377    -8.0820   -12.9329 C       0      r0    -0.0085
     62 C          -11.5648    -6.6461   -14.7321 C       7      r7    -0.0173
     63 C          -10.9492    -7.7352   -13.9484 C       7      r7    -0.0008
     64 H          -10.3571    -9.4672    14.7951 H       0      r0     0.0182
     65 H           -9.8595    -8.6162   -12.4713 H       0      r0     0.0251
     66 C           -9.8769    -8.7339   -14.5641 C       7      r7    -0.0206
     67 C           -8.9924    -8.0279   -11.9722 C       0      r0    -0.0181
     68 C           -8.9680    -6.4455   -12.0816 C       5      r5    -0.0039
     69 C           -8.6475    -9.5391   -13.9819 C       0      r0     0.0006
     70 C           -8.0745    -9.0468   -12.6664 C       0      r0    -0.0250
     71 C           -7.2683    -7.0881   -14.6729 C       0      r0     0.0026
     72 H           -7.2742    -9.5891   -12.2576 H       0      r0     0.0203
     73 H           -7.0058    -7.6611   -11.9565 H       0      r0     0.0239
     74 C           -6.8991    -6.2871   -13.6302 C       0      r0    -0.0033
     75 H           -6.0135    -9.0508   -14.8757 H       0      r0     0.0217
     76 C           -6.5829    -7.8491   -10.9911 C       0      r0    -0.0226
     77 C           -5.6611    -6.6634   -12.8318 C       0      r0    -0.0052
     78 H           -5.1046    -9.1656   -12.7971 H       0      r0     0.0468
     79 H           -4.0222    -5.9271   -14.2905 H       0      r0     0.0475
     80 C           -4.3713    -6.4366   -13.4623 C       0      r0    -0.0438
     81 C           -4.0652    -9.0025   -13.1292 C       5      r5    -0.1130
     82 C           -3.6035    -7.6451   -13.4457 C       5      r5     0.2202
     83 C           -2.9848    -9.7698   -13.1785 C       6      r6     0.2112
     84 O           -2.1169    -7.3826   -13.6438 O       5      r5    -0.4831
     85 C           -1.7233    -8.8808   -13.2597 C       6      r6     0.1577
     86 C           -0.5519    -9.2597   -12.8937 C       6      r6    -0.0220
     87 H            0.2577    -7.6953   -12.5126 H       0      r0     0.0525
     88 C            0.9991    -7.9114   -14.5567 C       0      r0     0.0346
     89 C            0.8219    -8.3726   -13.0161 C       0      r0    -0.0345
     90 H            1.4271    -8.8085   -12.0798 H       0      r0     0.0107
     91 C            2.3299    -8.4256   -14.6124 C       0      r0    -0.0237
     92 H            3.2692    -8.0868   -14.4010 H       0      r0     0.0931
     93 H            4.5395    -8.7680   -10.7630 H       0      r0     0.0144
     94 C            6.7736    -6.7685   -11.8469 C       5      r5    -0.0478
     95 C            7.2061    -6.5136   -14.0614 C       5      r5     0.2139
     96 C            7.4487    -7.2587   -12.8216 C       5      r5    -0.0215
     97 C            8.2613    -6.0595   -14.5189 C       0      r0    -0.0517
     98 C            8.0652    -9.6046   -13.4162 C       0      r0     0.0015
     99 C            8.3017    -8.4702   -12.6277 C       0      r0    -0.0166
    100 H            8.4450    -9.0623   -11.6620 H       0      r0     0.0179
    101 H            9.8019    -6.8913   -11.7291 H       0      r0     0.0297
    102 H           10.8406    -8.8838   -12.5251 H       0      r0     0.0264
    103 C           11.1591   -10.0195   -12.3628 C       7      r7    -0.0302
    104 C           12.0308   -10.2335   -11.0945 C       7      r7     0.0040
    105 C           12.9216    -6.8295   -10.9571 C       5      r5    -0.0057
    106 C           13.5869    -6.8566   -12.0000 C       5      r5     0.0004
    107 C           14.6276    -7.8244   -11.7716 C       7      r7    -0.0040
    108 C           15.0173    -7.8584   -13.1174 C       0      r0     0.0087
    109 C          -15.1079    -3.2281   -11.5007 C       0      r0    -0.0202
    110 C          -14.1212    -4.2221   -13.7560 C       5      r5     0.0090
    111 H          -14.1861    -3.5919   -10.9489 H       0      r0     0.0262
    112 C          -13.8518    -2.9347   -14.3537 C       5      r5     0.0251
    113 C          -12.7852    -4.3454   -13.1624 C       5      r5    -0.0162
    114 H          -12.5883    -5.2900   -12.7535 H       0      r0     0.0220
    115 C          -12.1872    -2.9644   -12.6994 C       6      r6     0.0215
    116 C          -11.0144    -2.4317   -11.9195 C       6      r6     0.0141
    117 C          -10.0762    -5.8318   -11.6083 C       5      r5    -0.0025
    118 C          -10.1623    -3.2403   -11.0374 C       6      r6    -0.0000
    119 C           -9.6425    -4.4262   -11.8036 C       5      r5    -0.0029
    120 C           -8.3254    -4.3678   -12.5095 C       5      r5     0.0005
    121 C           -8.0164    -5.6666   -12.8849 C       5      r5    -0.0032
    122 C           -7.5925    -2.3975   -14.9926 C       6      r6     0.0182
    123 H           -7.3014    -2.3809   -12.3437 H       0      r0     0.0196
    124 C           -7.4917    -3.1939   -13.0691 C       0      r0    -0.0154
    125 C           -6.0330    -3.6070   -12.8140 C       0      r0    -0.0051
    126 C           -5.9582    -4.2926   -11.4884 C       6      r6    -0.0039
    127 C           -5.7430    -5.8732   -11.6434 C       6      r6     0.0026
    128 C           -4.9525    -2.8706   -13.6081 C       0      r0    -0.0025
    129 C           -3.4358    -3.0061   -13.4414 C       0      r0    -0.0143
    130 H           -2.9008    -3.7759   -13.9757 H       0      r0     0.0294
    131 C           -2.3272    -2.3995   -12.9686 C       0      r0    -0.0009
    132 H           -1.0189    -4.6316   -12.0603 H       0      r0     0.0344
    133 C           -0.3741    -3.9290   -12.7662 C       0      r0    -0.0200
    134 C           -0.2710    -3.8602   -14.0856 C       0      r0     0.0198
    135 C            0.8433    -3.4692   -12.1332 C       0      r0     0.0020
    136 C            1.8134    -3.0541   -11.6606 C       0      r0    -0.0054
    137 C            3.0251    -2.0532   -11.8406 C       0      r0     0.0019
    138 C            5.0759    -5.2641   -11.2806 C       0      r0    -0.0457
    139 C            5.8506    -5.7864   -12.3448 C       5      r5     0.2392
    140 O            6.0544    -5.5044   -13.8102 O       5      r5    -0.4654
    141 C            6.3328    -2.1769   -14.0458 C       0      r0     0.0432
    142 C            7.3667    -2.4521   -14.1691 C       0      r0    -0.0090
    143 H            8.3942    -2.5255   -14.1817 H       0      r0     0.0222
    144 H            8.8472    -5.3480   -12.3026 H       0      r0     0.0287
    145 C            9.7198    -5.8533   -11.7646 C       7      r7    -0.0342
    146 C            9.9784    -4.2670   -14.9789 C       5      r5    -0.0071
    147 C           10.0783    -4.0256   -13.4788 C       0      r0    -0.0268
    148 H           10.4167    -3.0892   -13.2359 H       0      r0     0.0146
    149 C           10.5861    -5.1182   -12.7992 C       7      r7     0.0066
    150 C           11.6948    -5.4313   -12.1089 C       5      r5    -0.0147
    151 C           11.7830    -5.9177   -10.9278 C       5      r5     0.0058
    152 H           12.4132    -3.2060   -14.3628 H       0      r0     0.0179
    153 C           12.9828    -5.7607   -12.7760 C       5      r5     0.0073
    154 C           13.7728    -4.5343   -13.0709 C       0      r0    -0.0019
    155 H           14.5130    -3.4672   -10.5967 H       0      r0     0.0136
    156 H           14.2670    -2.6165    14.8092 H       0      r0     0.0261
    157 C           14.9634    -3.7709   -12.8761 C       0      r0    -0.0063
    158 C          -15.1081     1.0297   -11.3785 C       5      r5    -0.0317
    159 C          -14.3554    -0.3093   -11.2702 C       5      r5     0.2133
    160 H          -13.3889     1.0238   -14.3329 H       0      r0     0.0361
    161 C          -13.2661    -0.0096   -14.8064 C       7      r7    -0.0268
    162 C          -13.0258    -2.1776   -13.4832 C       6      r6     0.0135
    163 C          -12.3801    -0.8344   -13.9922 C       6      r6     0.0648
    164 C          -11.1632    -0.3369   -13.4960 C       6      r6     0.0435
    165 C          -10.7938    -0.9956   -12.2049 C       6      r6     0.0583
    166 C          -10.0776     0.1760   -14.4191 C       0      r0     0.0433
    167 C           -9.8803     1.2669   -11.1950 C       5      r5     0.2749
    168 C           -9.4868     1.7160   -14.7407 C       0      r0     0.0319
    169 C           -9.9390    -0.2384   -11.4554 C       6      r6    -0.0125
    170 C           -9.2804    -1.0127   -14.6642 C       5      r5    -0.0522
    171 C           -7.9184    -1.2449   -14.1295 C       6      r6     0.0049
    172 H           -7.4751     0.7174   -12.7872 H       0      r0     0.0207
    173 C           -7.2496    -0.2691   -13.3970 C       6      r6    -0.0190
    174 C           -5.8691    -0.6591   -13.7232 C       6      r6    -0.0190
    175 C           -5.4350    -1.7627   -14.5554 C       6      r6     0.0038
    176 H           -5.1399    -0.2392   -12.8118 H       0      r0     0.0105
    177 H           -3.7743     1.7111   -14.3878 H       0      r0     0.0163
    178 H           -2.6998     1.9112   -12.5067 H       0      r0     0.0208
    179 C           -1.8199    -1.4517   -12.3262 C       0      r0    -0.0055
    180 C           -0.7873    -0.6788   -11.7094 C       0      r0    -0.0234
    181 H           -0.0014    -0.9226   -12.5362 H       0      r0     0.0224
    182 C            1.6342     0.8067   -14.4143 C       6      r6     0.0146
    183 C            1.6837     1.1701   -12.0183 C       6      r6    -0.0050
    184 C            2.2106     0.2267   -13.0678 C       6      r6     0.0001
    185 C            2.4978     2.0460   -14.7259 C       6      r6     0.0140
    186 C            2.8549    -0.9021   -12.9423 C       0      r0    -0.0051
    187 C            3.9640    -1.0752   -13.8820 C       0      r0     0.0404
    188 C            4.7004    -0.7740   -10.6336 C       6      r6    -0.0246
    189 H            4.5410    -0.1050   -11.2945 H       0      r0     0.0252
    190 C            5.1969    -1.3661   -14.1158 C       0      r0     0.0151
    191 C            5.9391     1.8823   -14.4294 C       0      r0    -0.0024
    192 C            7.1507    -0.2950   -10.9538 C       0      r0    -0.0034
    193 C            7.6111    -0.2849   -12.0845 C       0      r0    -0.0050
    194 C            7.6477    -0.1472   -13.4042 C       0      r0    -0.0081
    195 C            7.9229     0.1518   -14.5810 C       6      r6    -0.0008
    196 C           10.1086     1.5539   -14.8065 C       0      r0    -0.0044
    197 H           12.4437     0.1323   -12.8561 H       0      r0     0.0121
    198 C           13.0739     1.1513   -13.0747 C       0      r0    -0.0182
    199 H           14.0561    -1.4065   -12.1548 H       0      r0     0.0131
    200 C           14.1419     1.2019   -12.3103 C       0      r0    -0.0047
    201 C           15.0043    -1.5663   -11.4328 C       0      r0    -0.0453
    202 H          -14.6921     2.4542   -12.5764 H       0      r0     0.0260
    203 C          -13.8433     3.2925   -11.7846 C       0      r0     0.0156
    204 C          -13.5555     3.8812   -12.8213 C       0      r0     0.0130
    205 C          -13.3305     4.4039   -14.2246 C       5      r5    -0.0120
    206 C          -11.9571     5.0123   -13.9145 C       6      r6     0.0081
    207 C          -11.6660     2.8539   -14.9563 C       5      r5     0.0341
    208 H          -10.5689     2.8925   -11.4871 H       0      r0     0.2970
    209 C          -11.1166     4.0843   -14.6258 C       6      r6     0.0150
    210 O          -10.7479     2.1661   -11.9765 O       0      r0    -0.6435
    211 C          -10.1537     5.3623   -11.2599 C       0      r0    -0.0003
    212 C           -8.7978     4.9614   -11.5990 C       0      r0    -0.0004
    213 C           -8.2943     2.2905   -14.5044 C       0      r0    -0.0005
    214 C           -8.2264     3.6429   -10.9311 C       0      r0    -0.0146
    215 C           -7.9096     5.7800   -11.9786 C       0      r0    -0.0099
    216 C           -7.3358     2.9849   -14.4996 C       0      r0     0.0072
    217 C           -7.3246     3.0029   -11.8036 C       0      r0     0.0018
    218 C           -6.5351     2.8682   -13.1364 C       0      r0    -0.0220
    219 H           -6.4516     5.1263    14.9675 H       0      r0     0.0252
    220 H           -5.5179     2.3420   -13.2122 H       0      r0     0.0130
    221 H           -5.3394     4.1998   -10.1411 H       0      r0     0.0207
    222 H           -3.4472     3.1411   -10.9742 H       0      r0     0.0286
    223 H           -3.5477     3.3453   -12.8533 H       0      r0     0.0247
    224 C           -3.0451     2.8776   -12.0175 C       0      r0    -0.0500
    225 H           -2.9465     4.2496   -14.0453 H       0      r0     0.0273
    226 C           -1.6938     3.0105   -11.1431 C       0      r0     0.0172
    227 C           -0.8506     3.1090   -12.0172 C       0      r0     0.0015
    228 C            0.2762     3.4835   -12.7817 C       0      r0     0.0063
    229 C            1.5083     5.5018   -13.5832 C       0      r0     0.0002
    230 C            1.5488     4.3802   -12.6661 C       0      r0    -0.0138
    231 H            1.8507     4.9263   -11.6944 H       0      r0     0.0199
    232 C            2.6952     2.2605   -12.2541 C       6      r6     0.0001
    233 C            3.3212     2.3448   -13.6411 C       6      r6    -0.0002
    234 C            3.6871     2.3648   -11.4493 C       6      r6    -0.0026
    235 C            4.8669     2.4665   -13.8143 C       5      r5     0.0031
    236 C            4.8082     4.4760   -12.4431 C       0      r0     0.0013
    237 C            5.0026     3.1672   -12.2497 C       5      r5    -0.0180
    238 C            4.9581     5.8545   -12.5786 C       0      r0    -0.0067
    239 H            5.9737     2.8322   -11.7587 H       0      r0     0.0201
    240 H            7.6478     3.0496   -12.8162 H       0      r0     0.0210
    241 H            7.2030     5.6005   -13.3254 H       0      r0     0.0272
    242 C            7.8340     4.7287   -13.4906 C       0      r0    -0.0234
    243 C            8.0254     3.8684   -10.6931 C       6      r6     0.0028
    244 C            8.2195     3.8077   -12.3347 C       0      r0    -0.0315
    245 C            8.8918     4.9816   -14.4873 C       0      r0     0.0008
    246 H            9.1454     3.7600   -12.9007 H       0      r0     0.0264
    247 C            9.8173     5.9764    14.9267 C       0      r0    -0.0177
    248 C           10.6839     6.0638   -11.6566 C       0      r0    -0.0194
    249 C           10.8342     3.8923   -11.0960 C       5      r5    -0.0068
    250 C           11.1109     5.1377   -14.6720 C       0      r0    -0.0009
    251 C           11.1087     2.4647   -14.4109 C       0      r0    -0.0032
    252 C           10.8748     3.8174   -14.5687 C       0      r0    -0.0008
    253 H           11.1546     5.8344   -12.6421 H       0      r0     0.0236
    254 C           12.4483     5.9149   -14.8163 C       7      r7    -0.0052
    255 C           12.5011     2.3890   -13.6243 C       0      r0     0.0028
    256 C           13.3007     4.1930   -11.3454 C       7      r7    -0.0030
    257 C           13.2738     3.6159   -13.6972 C       7      r7    -0.0040
    258 C           13.6595     4.6117   -12.6396 C       7      r7    -0.0048
    259 C          -15.0349     6.8166   -10.9745 C       7      r7    -0.0055
    260 C          -15.0849     8.9108   -13.6131 C       0      r0     0.0036
    261 C          -14.6876     8.7565    14.9473 C       0      r0    -0.0111
    262 C          -13.8663     9.2427   -13.0992 C       0      r0    -0.0082
    263 C          -12.4252     9.2898   -12.9312 C       0      r0     0.0019
    264 C          -12.0105     8.2686   -11.8641 C       5      r5    -0.0048
    265 C          -11.5615     6.2195   -13.3819 C       6      r6     0.0015
    266 C          -11.1834     7.0989   -14.6343 C       6      r6    -0.0015
    267 C          -10.7079     7.9015   -11.5423 C       5      r5    -0.0086
    268 C          -10.4036     6.4296   -12.3627 C       0      r0    -0.0146
    269 H          -10.0103     8.5373   -12.1743 H       0      r0     0.0223
    270 C           -9.9845     8.0526   -14.4114 C       0      r0     0.0073
    271 H           -9.4774     6.3964   -13.0663 H       0      r0     0.0239
    272 C           -9.0161     8.9444   -14.1352 C       0      r0     0.0049
    273 C           -8.7085     9.6308   -11.2776 C       0      r0    -0.0042
    274 H           -8.5472     9.4978   -14.8247 H       0      r0     0.0574
    275 C           -8.3435     9.1099   -12.7280 C       0      r0    -0.0074
    276 C           -7.0838     8.3089   -12.3485 C       0      r0     0.0130
    277 C           -6.8644     6.7224   -12.3235 C       0      r0     0.0073
    278 C           -6.0933     9.5367   -11.7310 C       0      r0     0.0064
    279 C           -5.9629     6.7587   -11.2562 C       0      r0    -0.0024
    280 C           -4.8961     9.3481   -11.0018 C       0      r0    -0.0336
    281 H           -4.9309     8.2313   -11.2155 H       0      r0     0.0329
    282 C           -3.6109     9.3122   -14.0045 C       0      r0     0.0002
    283 H           -3.2694     8.1313   -12.2877 H       0      r0     0.0730
    284 C           -3.0268     8.4917   -13.2828 C       0      r0    -0.0164
    285 O           -2.0339     6.7912   -10.8947 O       0      r0    -0.4669
    286 C           -1.9996     7.4458   -14.0293 C       0      r0     0.0181
    287 C           -0.7959     6.9438   -13.5210 C       0      r0     0.0404
    288 H           -0.6314    10.1137   -13.3553 H       0      r0     0.0276
    289 C            0.6401     6.7640   -13.6025 C       0      r0    -0.0232
    290 C            0.6269     9.0906   -10.8945 C       5      r5     0.0012
    291 H            0.8656     7.7108   -14.1436 H       0      r0     0.0214
    292 C            1.0347     7.6423   -10.9172 C       0      r0    -0.0200
    293 C            2.7568     9.6485   -14.2440 C       0      r0    -0.0216
    294 H            2.9133     7.3195   -12.0078 H       0      r0     0.0202
    295 C            3.0430     9.9295   -12.9739 C       0      r0     0.0028
    296 H            3.5894     9.0633   -14.7670 H       0      r0     0.0169
    297 C            3.6939     8.0472   -11.4953 C       0      r0    -0.0177
    298 C            4.3640     9.0125   -12.5946 C       0      r0    -0.0004
    299 C            4.9646     6.4772   -14.0616 C       0      r0    -0.0060
    300 C            5.0505     7.6738   -10.8841 C       6      r6     0.0033
    301 C            5.5770     9.6057   -13.3507 C       0      r0    -0.0164
    302 C            5.6228     6.5420   -11.3328 C       6      r6    -0.0045
    303 C            5.7832     8.6429   -14.4492 C       0      r0    -0.0034
    304 C            6.2498     7.1814   -14.3961 C       0      r0    -0.0028
    305 C            8.2734     9.2537   -11.5346 C       6      r6     0.0026
    306 C            9.2058     8.2571   -11.9683 C       0      r0     0.0047
    307 H           10.0826     6.9614   -14.6872 H       0      r0     0.0233
    308 C           10.0699     7.2908   -11.6323 C       0      r0     0.0004
    309 H           10.8640     8.4214   -14.0170 H       0      r0     0.0492
    310 C           11.9499     8.2205   -13.5801 C       6      r6    -0.0193
    311 C           12.6104     7.0045   -13.8060 C       6      r6    -0.0027
    312 C           12.7914     9.0386   -12.6110 C       6      r6     0.0096
    313 C           13.5408     6.1956   -12.8037 C       6      r6    -0.0040
    314 C           14.3410     8.7120   -12.4484 C       6      r6    -0.0150
    315 C           14.3094     7.0991   -12.1640 C       6      r6    -0.0004
    316 H           14.9735     9.4122   -11.5515 H       0      r0     0.0181
    317 C          -15.0980    13.2038   -11.7353 C       0      r0    -0.0004
    318 H          -14.0436    11.5531   -11.2162 H       0      r0     0.0176
    319 C          -14.6096    12.0958   -12.0866 C       0      r0    -0.0171
    320 C          -14.0147    11.5660   -14.4619 C       0      r0     0.0007
    321 C          -13.6008    12.2218   -13.3885 C       0      r0    -0.0016
    322 H          -12.8972    14.0794   -11.0173 H       0      r0     0.0228
    323 C          -12.6506    13.3544   -13.1362 C       0      r0    -0.0050
    324 H          -11.5520    11.1196   -13.9547 H       0      r0     0.0243
    325 C          -11.4727    10.5584   -13.0889 C       0      r0    -0.0252
    326 C          -11.1321    13.4668   -13.0381 C       5      r5    -0.0030
    327 C          -10.5528    13.4820   -14.4078 C       5      r5     0.0003
    328 C          -10.6895    10.7145   -12.1044 C       0      r0     0.0009
    329 C           -9.8289    13.2335   -10.9771 C       0      r0    -0.0060
    330 C           -9.8046    13.6799   -12.2599 C       5      r5    -0.0039
    331 C           -9.7798    10.7372   -11.2584 C       0      r0     0.0013
    332 C           -9.0157    13.4636   -14.4165 C       5      r5    -0.0171
    333 C           -8.6525    13.7366   -13.0101 C       5      r5    -0.0046
    334 H           -8.5741    12.3907   -14.4492 H       0      r0     0.0174
    335 C           -7.4463    13.4928   -12.1615 C       0      r0    -0.0041
    336 C           -6.9074    11.9795   -11.9198 C       0      r0    -0.0011
    337 C           -6.8530    13.9598   -11.1412 C       0      r0    -0.0001
    338 C           -6.5608    10.9198   -11.9673 C       0      r0     0.0004
    339 C           -5.2904    10.9819   -14.6258 C       0      r0    -0.0157
    340 C           -5.2356    12.3047   -14.2517 C       0      r0    -0.0126
    341 C           -5.2711    13.5053   -13.9386 C       0      r0    -0.0021
    342 H           -3.7132    13.4491   -11.4948 H       0      r0     0.0165
    343 C           -4.1175    10.1555   -14.8744 C       0      r0     0.0011
    344 H           -1.6575    13.3705   -11.2757 H       0      r0     0.0077
    345 H           -1.5256    11.4667   -13.8503 H       0      r0     0.0200
    346 C           -1.2197    10.5192   -11.2150 C       5      r5    -0.0240
    347 C           -0.7722    10.8634   -14.1587 C       0      r0    -0.0400
    348 C           -0.0426    11.0066   -11.7468 C       5      r5    -0.0251
    349 H           -0.0495    11.9509   -12.2420 H       0      r0     0.0190
    350 C            0.1649    11.8254   -14.8978 C       0      r0     0.0019
    351 C            1.1994    10.3025   -11.6458 C       5      r5    -0.0012
    352 H            1.5398    13.6196   -14.1560 H       0      r0     0.0249
    353 C            1.5579    11.7849   -14.8586 C       0      r0     0.0012
    354 C            2.3643    13.0279   -14.4338 C       0      r0    -0.0308
    355 C            2.3969    10.5095   -12.1655 C       0      r0     0.0039
    356 C            2.7329    12.0414   -11.8543 C       5      r5    -0.0427
    357 H            3.1254    13.0669    14.7786 H       0      r0     0.0198
    358 C            2.8830    13.0016   -12.8377 C       5      r5    -0.0351
    359 C            3.6139    13.9518   -12.1038 C       5      r5     0.1781
    360 H            5.8705    10.6403   -13.4959 H       0      r0     0.0224
    361 C            5.4939    13.6729   -13.9892 C       6      r6    -0.0031
    362 H            6.8803    12.4728   -12.3090 H       0      r0     0.0262
    363 C            7.1221    13.4737   -12.4242 C       6      r6    -0.0082
    364 C            8.1205    10.7113   -11.3904 C       6      r6    -0.0050
    365 H            8.6460    11.0838   -13.6349 H       0      r0     0.0545
    366 C            9.3676    11.3021   -11.9497 C       7      r7     0.0042
    367 C            9.1039    12.0252   -13.2835 C       7      r7    -0.0115
    368 C           10.1986    12.8636   -13.7806 C       7      r7     0.0245
    369 C           10.6837    11.4619   -11.2455 C       6      r6    -0.0021
    370 C           11.2207    13.6034   -12.8778 C       6      r6    -0.0025
    371 C           11.8537    11.4951   -12.2149 C       6      r6     0.0083
    372 C           12.3780    12.7752   -12.3406 C       6      r6    -0.0001
    373 C           12.5797    10.3878   -12.2809 C       0      r0    -0.0011
    374 C           12.7763    13.4784   -11.1114 C       6      r6    -0.0030
    375 C          -15.0966   -11.6668   -10.2404 C       6      r6    -0.0040
    376 H           15.0920   -13.0158    -6.9788 H       0      r0     0.0207
    377 C          -14.7144   -13.8396    -6.9794 C       0      r0    -0.0262
    378 C          -13.8866   -10.7944   -10.0175 C       6      r6     0.0008
    379 C          -13.2734   -13.3297   -10.9065 C       6      r6    -0.0155
    380 C          -12.6002   -11.4285    -9.8422 C       6      r6     0.0015
    381 C          -12.5607   -12.8556    -9.8157 C       6      r6     0.0028
    382 C          -11.4560   -10.5639   -10.4570 C       6      r6    -0.0036
    383 C          -11.3581   -13.9451    -9.3048 C       0      r0    -0.0224
    384 C          -10.2875   -10.9761   -10.7474 C       0      r0     0.0032
    385 C           -8.3235   -11.1751    -8.3233 C       0      r0    -0.0155
    386 H           -7.6411   -11.0777    -7.4784 H       0      r0     0.0190
    387 C           -8.0769   -11.6395    -9.6240 C       0      r0    -0.0029
    388 H           -7.3582   -12.4510    -6.6184 H       0      r0     0.0170
    389 C           -6.8799   -12.5739    -9.7585 C       0      r0     0.0041
    390 C           -6.1450   -11.8684    -8.5049 C       0      r0    -0.0104
    391 C           -6.2538   -13.6950   -10.1936 C       0      r0    -0.0175
    392 C           -6.1793   -10.4449    -8.5772 C       0      r0    -0.0029
    393 C           -5.4955   -12.1876    -7.2439 C       6      r6     0.0135
    394 H           -5.2715   -14.1324   -10.0264 H       0      r0     0.0264
    395 C           -4.9485   -13.4379    -6.7443 C       6      r6    -0.0036
    396 H           -2.8313   -10.5236   -10.4415 H       0      r0     0.0733
    397 C           -1.9535   -10.4252    -8.7170 C       0      r0    -0.0005
    398 C           -1.3726   -10.7726    -7.3743 C       0      r0    -0.0104
    399 H           -0.9549   -13.6662    -7.5521 H       0      r0     0.0182
    400 C            0.0483   -11.5389    -7.1113 C       0      r0    -0.0064
    401 C            0.7296   -11.9930    -8.1688 C       0      r0    -0.0072
    402 C            1.3606   -12.5092    -9.2641 C       0      r0    -0.0040
    403 C            1.7667   -13.1778   -10.4338 C       0      r0     0.0151
    404 H            3.0480   -10.9630    -7.7146 H       0      r0     0.0179
    405 C            3.2018   -11.1662    -6.6723 C       5      r5    -0.0222
    406 H            4.7066   -12.6134    -9.3179 H       0      r0     0.0639
    407 C            5.6596   -12.1944    -9.6209 C       6      r6    -0.0039
    408 C            5.6687   -11.0198    -6.7225 C       0      r0    -0.0026
    409 H            5.6927   -13.0153    -7.0087 H       0      r0     0.0243
    410 C            6.4107   -12.1451    -7.3015 C       7      r7    -0.0147
    411 C            6.8511   -12.2716    -8.8724 C       6      r6     0.0052
    412 C            7.5443   -10.2975    -9.8019 C       6      r6    -0.0006
    413 C            7.9732   -12.4843    -6.8966 C       7      r7    -0.0026
    414 C            7.9561   -11.6962    -9.3948 C       6      r6     0.0020
    415 C            9.2372   -11.6596    -6.8803 C       6      r6     0.0002
    416 C            9.3610   -12.2016    -9.4195 C       7      r7     0.0003
    417 C            9.6421   -13.5028    -9.8745 C       6      r6    -0.0073
    418 H            9.8961    14.1871    -7.3973 H       0      r0     0.0145
    419 C           10.1394   -11.6507    -8.0479 C       6      r6    -0.0166
    420 C           10.9434   -13.4508   -10.6334 C       6      r6    -0.0002
    421 H           10.7956   -12.3259    -7.6888 H       0      r0     0.0168
    422 C           12.8555   -10.9184    -7.5274 C       0      r0     0.0037
    423 C           13.1309   -11.8642    -8.6169 C       0      r0    -0.0199
    424 H           13.3158   -12.7835    -7.8543 H       0      r0     0.0149
    425 C           13.8521   -11.2460    -9.7171 C       7      r7     0.0007
    426 C           15.1322    -8.5041    -9.5084 C       7      r7     0.0021
    427 H          -14.4921   -10.1537    -8.0260 H       0      r0     0.0177
    428 C          -14.6409    -7.9981   -10.7238 C       7      r7    -0.0068
    429 C          -14.0351    -9.7131    -9.0231 C       6      r6    -0.0160
    430 C          -13.4306    -6.1917    -7.7957 C       6      r6    -0.0057
    431 H          -12.6289    -8.8462    -7.6088 H       0      r0     0.0185
    432 C          -12.5278    -9.3759    -8.6920 C       6      r6    -0.0125
    433 C          -12.3909    -6.6108   -10.4585 C       0      r0    -0.0065
    434 C          -12.4107    -6.5427    -6.8654 C       6      r6    -0.0021
    435 C          -11.3649    -9.5309    -9.1971 C       6      r6     0.0044
    436 C          -10.8300    -6.4110   -10.3668 C       0      r0    -0.0077
    437 C          -10.9941    -6.7845    -7.3614 C       6      r6     0.0003
    438 C          -10.4813    -8.1047    -7.1729 C       6      r6     0.0099
    439 C          -10.3038    -7.3898    -9.8306 C       0      r0     0.0026
    440 C          -10.1876    -9.0150    -8.3400 C       6      r6     0.0027
    441 C           -9.2146    -8.0391    -9.2583 C       0      r0    -0.0191
    442 C           -9.3844   -10.3474    -7.8938 C       6      r6    -0.0052
    443 H           -8.1700    -7.7156    -9.2018 H       0      r0     0.0198
    444 H           -7.5292    -9.6457   -10.6652 H       0      r0     0.0186
    445 H           -7.2622    -7.4750    -7.9839 H       0      r0     0.0298
    446 C           -6.8832    -6.3748    -8.1699 C       6      r6    -0.0137
    447 C           -6.8166    -8.9590   -10.2794 C       0      r0    -0.0122
    448 C           -6.2078    -9.1320    -8.8456 C       0      r0    -0.0186
    449 C           -5.8965    -6.6456   -10.4753 C       6      r6     0.0005
    450 H           -5.4074    -8.6397    -8.2891 H       0      r0     0.0255
    451 C           -2.4612    -9.8001    -9.7875 C       0      r0    -0.0268
    452 C           -2.4158    -8.3816   -10.1859 C       0      r0     0.0152
    453 C           -2.1845    -6.9754   -10.2259 C       0      r0     0.0124
    454 C           -0.8107    -9.6381    -7.1049 C       0      r0     0.0017
    455 H            2.4377    -7.1895    -7.8025 H       0      r0     0.0085
    456 C            2.3567    -6.4386    -7.0126 C       6      r6    -0.0202
    457 H            4.6958    -7.8354    -6.5292 H       0      r0     0.0198
    458 C            5.5716    -8.9299   -10.5906 C       0      r0    -0.0192
    459 H            4.9244    -6.1156    -8.6298 H       0      r0     0.0222
    460 C            5.5898    -9.6345    -7.0115 C       0      r0    -0.0034
    461 C            5.9430    -8.7524    -8.0303 C       0      r0     0.0052
    462 C            6.0463    -8.1442    -9.3282 C       0      r0    -0.0060
    463 C            6.1850   -10.1019   -10.3744 C       6      r6     0.0016
    464 C            6.7390    -6.8892    -9.6070 C       0      r0     0.0356
    465 C            7.5636    -6.3819   -10.7854 C       0      r0     0.0133
    466 H            9.1035    -8.5189   -10.3418 H       0      r0     0.0299
    467 C            8.6381    -9.2664    -9.7855 C       7      r7     0.0044
    468 O            9.3486    -6.7830    -8.2327 O       0      r0    -0.4773
    469 C            9.6716    -9.2368    -8.7042 C       7      r7    -0.0563
    470 C           10.0174    -7.8790    -8.0955 C       0      r0     0.2961
    471 C           10.5579   -10.2274    -8.2606 C       6      r6     0.0064
    472 H           10.9031    -7.6948    -7.3905 H       0      r0    -0.0056
    473 C           11.7000    -9.8691    -7.1528 C       6      r6    -0.0301
    474 H           12.0480    -8.9285    -7.3023 H       0      r0     0.0167
    475 C           12.4796    -9.1534   -10.3784 C       0      r0    -0.0055
    476 C           12.9777    -7.9921    -9.9898 C       7      r7     0.0060
    477 H           13.9710    -7.7662    -7.6926 H       0      r0     0.0191
    478 C           13.9944    -7.9757    -8.8330 C       7      r7    -0.0213
    479 C          -14.7804    -3.8087    -7.8180 C       6      r6    -0.0245
    480 C          -14.5237    -5.2824    -7.1942 C       6      r6     0.0038
    481 C          -13.8413    -3.6189    -8.8064 C       6      r6    -0.0029
    482 H          -14.3435    -2.5180    -8.9142 H       0      r0     0.0338
    483 C          -13.2146    -4.5926    -9.7232 C       6      r6    -0.0195
    484 C          -13.0386    -6.0133    -9.3336 C       6      r6    -0.0009
    485 H          -13.0370    -4.4402   -10.8122 H       0      r0     0.0203
    486 H          -10.5926    -4.6273    -9.1071 H       0      r0     0.0262
    487 C          -10.0663    -5.7123    -7.7474 C       0      r0    -0.0003
    488 C           -9.7461    -4.7126    -8.4257 C       0      r0    -0.0247
    489 C           -9.2368    -2.2736   -10.1766 C       6      r6     0.0060
    490 C           -8.6922    -2.3549    -8.9645 C       6      r6    -0.0029
    491 C           -8.7207    -3.5829    -8.2338 C       5      r5    -0.0038
    492 C           -8.1816    -3.4619    -6.8456 C       5      r5    -0.0160
    493 C           -7.5836    -2.1533    -6.8088 C       5      r5    -0.0220
    494 C           -6.6715    -5.5393    -6.8876 C       6      r6    -0.0253
    495 C           -6.2888    -5.8518    -9.2935 C       6      r6    -0.0059
    496 C           -5.4705    -4.5705    -9.4537 C       6      r6     0.0039
    497 C           -5.8025    -4.7818    -7.3525 C       6      r6     0.0275
    498 C           -5.4235    -3.4743   -10.3256 C       6      r6    -0.0216
    499 H           -5.3236    -2.3546   -10.7195 H       0      r0     0.0126
    500 C           -4.8099    -4.1290    -8.2589 C       6      r6    -0.0065
    501 C           -3.5316    -2.4398    -6.9918 C       0      r0     0.0072
    502 C           -3.4608    -3.6323    -7.7200 C       0      r0     0.0159
    503 C           -2.2944    -5.9761    -9.7395 C       0      r0     0.0121
    504 C           -2.1573    -3.9692    -8.2021 C       0      r0     0.0503
    505 C           -2.1447    -4.5362    -9.5531 C       0      r0    -0.0267
    506 H           -1.7879    -4.1857   -10.4964 H       0      r0     0.0243
    507 C           -1.0634    -3.5880    -7.6052 C       0      r0    -0.0916
    508 C           -0.0653    -2.6133    -8.1843 C       0      r0    -0.0002
    509 H            0.3770    -2.8891    -9.0918 H       0      r0     0.0179
    510 H            2.0950    -5.1445    -8.3354 H       0      r0     0.0180
    511 C            2.2969    -5.1171    -7.3971 C       6      r6    -0.0228
    512 C            3.2635    -4.2196    -6.6968 C       6      r6    -0.0023
    513 C            4.4231    -3.3162    -7.1368 C       7      r7    -0.0071
    514 C            4.2422    -2.9736    -8.4978 C       6      r6    -0.0106
    515 C            4.5952    -3.0855    -9.8355 C       6      r6    -0.0031
    516 H            5.4866    -4.4032    -8.2417 H       0      r0     0.0244
    517 C            4.6814    -4.4797   -10.0392 C       0      r0     0.0120
    518 C            5.5197    -5.3234    -8.9227 C       0      r0    -0.0420
    519 C            7.0955    -4.8608    -8.7973 C       0      r0     0.0370
    520 C            7.5903    -3.6975    -8.2251 C       0      r0     0.0022
    521 C            7.9342    -5.1195   -10.1687 C       0      r0     0.0225
    522 C            8.1037    -2.5595    -7.5511 C       0      r0     0.0053
    523 C            9.2796    -4.8663   -10.6649 C       7      r7     0.0169
    524 C           10.4902    -4.3391    -9.9013 C       5      r5     0.0221
    525 C           10.6390    -3.1329    -9.0008 C       5      r5    -0.0005
    526 C           11.7122    -3.4353    -8.0976 C       5      r5     0.0095
    527 C           11.7877    -4.9995    -9.8633 C       5      r5     0.0094
    528 C           12.0808    -2.2097    -7.4385 C       6      r6    -0.0085
    529 C           12.6659    -4.4870    -8.6958 C       5      r5    -0.0289
    530 H           13.2926    -5.0210    -7.9951 H       0      r0     0.0288
    531 H           13.4326    -4.1073    -9.4487 H       0      r0     0.0150
    532 H           14.9156    -2.8773    -7.4577 H       0      r0     0.0203
    533 C           14.6764    -6.0255    -6.6463 C       0      r0    -0.0116
    534 C          -14.7322     1.3867    -9.9935 C       6      r6    -0.0297
    535 C          -13.4417     0.8033    -9.5518 C       6      r6     0.2115
    536 O          -13.0379    -0.3369   -10.4997 O       5      r5    -0.4696
    537 H          -11.5011    -0.3077    -7.3768 H       0      r0     0.0357
    538 C          -11.0007    -0.5048    -6.5266 C       0      r0    -0.0181
    539 C           -9.0481    -0.7370   -10.3731 C       6      r6    -0.0060
    540 C           -8.9737     1.4295   -10.1914 C       5      r5    -0.0865
    541 C           -8.6638     0.2367    -9.3037 C       6      r6     0.0234
    542 H           -8.0631    -0.1151    -6.8315 H       0      r0     0.0199
    543 C           -7.7743     0.0280    -7.8948 C       6      r6    -0.0373
    544 C           -7.7572    -1.5761    -8.0224 C       6      r6    -0.0026
    545 H           -6.8370     0.7502    -7.8877 H       0      r0     0.0137
    546 H           -3.9262     0.0372    -9.7345 H       0      r0     0.0134
    547 C           -3.3750    -1.1225    -7.6154 C       0      r0    -0.0105
    548 C           -3.1623     0.5088    -9.0939 C       0      r0    -0.0275
    549 C           -3.0231     0.2906    -7.6151 C       0      r0     0.0092
    550 C           -2.7174     1.4467    -6.7376 C       0      r0    -0.0297
    551 C           -1.9565     0.9816    -9.9099 C       0      r0     0.0002
    552 C           -0.8516     0.0841   -10.3895 C       0      r0    -0.0014
    553 H           -0.1423    -1.1855    -6.6101 H       0      r0     0.0415
    554 H           -0.4799     2.4832    -8.8361 H       0      r0     0.0218
    555 C            0.1025    -1.3786    -7.6124 C       0      r0    -0.0215
    556 C            0.5690    -0.0830    -9.9537 C       0      r0    -0.0092
    557 C            0.8747    -0.6326    -8.6537 C       0      r0    -0.0039
    558 C            1.1608     0.9880   -10.7199 C       6      r6    -0.0043
    559 C            1.7827     0.0396    -7.6687 C       0      r0     0.0008
    560 C            3.0546    -0.4479    -8.0801 C       0      r0    -0.0200
    561 H            2.6889    -0.6313    -9.0984 H       0      r0     0.0221
    562 C            3.9886    -2.0535   -10.8715 C       6      r6     0.0007
    563 C            4.0984    -0.9458    -7.4209 C       7      r7     0.0019
    564 C            4.7380    -1.6235    -8.4066 C       6      r6    -0.0040
    565 C            5.3287    -0.8102    -9.3892 C       6      r6     0.0007
    566 H            6.2346     1.4327    -7.7113 H       0      r0     0.0233
    567 C            6.8397    -0.2272    -9.6556 C       0      r0    -0.0069
    568 C            8.0162    -0.5425    -8.8850 C       6      r6    -0.0009
    569 C            8.6081    -1.8320    -8.7394 C       6      r6    -0.0006
    570 C            8.7928     0.7823    -8.9826 C       6      r6     0.0002
    571 C           10.0450    -1.7509    -9.1002 C       6      r6    -0.0037
    572 C           10.1440     0.5969    -9.3093 C       6      r6    -0.0007
    573 C           10.6893     1.7643   -10.0703 C       6      r6    -0.0018
    574 C           10.8285    -0.6008    -9.6209 C       6      r6    -0.0011
    575 C           12.2329    -0.8368    -7.8921 C       6      r6     0.0041
    576 C           12.3080    -0.6200    -9.3860 C       7      r7    -0.0266
    577 C           12.4303     0.1447    -6.9153 C       6      r6     0.0030
    578 C           12.5563     1.5690    -7.1565 C       6      r6    -0.0026
    579 H           12.9975    -0.4970   -10.0355 H       0      r0     0.0207
    580 C          -14.9924     2.3901    -8.9190 C       6      r6    -0.0124
    581 C          -14.8694     3.5542    -9.7386 C       6      r6     0.0018
    582 C          -13.2403     3.2845   -10.2090 C       6      r6     0.0087
    583 H          -12.9437     3.7340    -7.9832 H       0      r0     0.0242
    584 C          -12.7122     2.1406    -9.3673 C       6      r6    -0.0177
    585 H          -12.9325     2.1193    -8.4214 H       0      r0     0.0092
    586 H          -12.9372     4.3704   -10.2481 H       0      r0     0.0258
    587 C          -12.4140     3.8274    -7.0354 C       3      r3    -0.0087
    588 C          -11.0027     4.5331    -7.4702 C       0      r0    -0.0136
    589 C          -11.0122     4.8108    -8.7303 C       0      r0     0.0140
    590 C          -10.6606     5.0119   -10.0484 C       0      r0    -0.0144
    591 H           -8.8307     2.2928    -6.6214 H       0      r0     0.0184
    592 C           -8.5626     2.8037    -9.6812 C       0      r0     0.0122
    593 C           -8.0685     3.3950    -8.5065 C       0      r0    -0.0225
    594 C           -8.1902     3.1323    -7.0960 C       0      r0    -0.0199
    595 H           -7.9848     4.4930    -8.8758 H       0      r0     0.0194
    596 C           -6.4421     5.6860    -8.8064 C       0      r0     0.0092
    597 H           -6.3777     3.4425    -7.0198 H       0      r0     0.0445
    598 C           -5.1169     5.4222    -9.6821 C       0      r0    -0.0219
    599 H           -4.6224     2.2702    -7.1808 H       0      r0     0.0227
    600 H           -4.2695     5.5461    -8.8686 H       0      r0     0.0778
    601 O           -4.2372     5.2178    -6.7429 O       6      r6    -0.5217
    602 C           -3.6779     2.3547    -6.5575 C       0      r0     0.0199
    603 H           -1.7580     4.6774    -9.3536 H       0      r0     0.0398
    604 H           -2.5160     2.6858    -9.1929 H       0      r0     0.0256
    605 C           -1.5243     2.4780    -9.7474 C       0      r0    -0.0312
    606 C           -1.6655     5.7654    -9.0918 C       6      r6     0.0012
    607 H           -1.7013     4.2521    -7.3688 H       0      r0     0.0352
    608 C           -1.2121     5.0860    -6.8689 C       0      r0    -0.0021
    609 C            1.4879     3.2897    -7.4976 C       0      r0    -0.0071
    610 C            1.3019     2.7637    -8.7114 C       0      r0    -0.0088
    611 C            1.6189     2.1903    -9.8842 C       6      r6    -0.0008
    612 C            3.0260     2.5341   -10.1611 C       6      r6    -0.0045
    613 C            3.8177     3.2277    -9.3413 C       0      r0    -0.0030
    614 C            4.2760     3.9113    -8.5448 C       0      r0    -0.0097
    615 C            5.3799     4.3155    -7.7332 C       0      r0     0.0008
    616 C            6.5110     3.7020    -8.5831 C       6      r6     0.0029
    617 C            6.7729     5.9830   -10.4058 C       6      r6    -0.0028
    618 C            6.8652     2.3312    -8.3884 C       6      r6    -0.0116
    619 C            7.0224     4.4986    -9.9287 C       6      r6    -0.0031
    620 C            8.0202     2.0132    -9.1553 C       6      r6     0.0030
    621 C            8.7478     2.9238    -9.9461 C       6      r6    -0.0004
    622 C            9.8658     5.6910    -9.3338 C       0      r0    -0.0180
    623 C            9.9601     2.7667   -10.7430 C       6      r6     0.0005
    624 C           10.1289     5.0284   -10.7066 C       0      r0     0.0081
    625 H           10.8955     3.3727    -6.6917 H       0      r0     0.0281
    626 H           10.5706     5.8393    -8.4672 H       0      r0     0.0223
    627 C           11.9541     2.8649    -6.6783 C       6      r6    -0.0126
    628 C           12.0676     2.2409    -9.7241 C       5      r5    -0.0011
    629 C           12.1882     5.3741    -6.8068 C       0      r0    -0.0202
    630 C           12.1594     3.3627   -10.8060 C       5      r5    -0.0006
    631 C           12.9040     1.9491    -8.5730 C       6      r6    -0.0029
    632 C           12.7869     4.0711    -6.7893 C       6      r6    -0.0050
    633 C           14.0936     2.7793    -8.1952 C       6      r6     0.0018
    634 C           14.1214     4.0870    -7.5812 C       6      r6    -0.0218
    635 C           14.4490     4.3087   -10.3788 C       7      r7    -0.0033
    636 H           14.7535     4.6713    -6.8530 H       0      r0     0.0202
    637 C           15.1352     5.7103   -10.2429 C       7      r7     0.0063
    638 C          -14.5090     9.1799    -9.4642 C       0      r0     0.0242
    639 C          -14.1967     8.0108   -10.3143 C       0      r0     0.0218
    640 C          -12.8826     7.8377   -10.7546 C       5      r5    -0.0241
    641 O          -12.0143     7.7381    -8.2234 O       6      r6    -0.4825
    642 C          -11.6562     7.6611    -9.7461 C       6      r6     0.2352
    643 C          -10.7615     7.2987    -7.3406 C       6      r6     0.2021
    644 C          -10.5504     7.8084   -10.2146 C       6      r6    -0.0761
    645 C           -9.3723     7.2157    -8.0220 C       6      r6    -0.0561
    646 C           -9.4928     8.0561    -9.1044 C       6      r6     0.0389
    647 C           -8.6174     8.8082   -10.1488 C       0      r0     0.0140
    648 C           -8.6447    10.1381    -7.2710 C       0      r0     0.3482
    649 C           -8.1502     6.9847    -7.2605 C       6      r6     0.0289
    650 C           -7.2556     6.1712    -8.0133 C       0      r0    -0.0002
    651 C           -5.1762     6.9366   -10.1595 C       0      r0     0.0062
    652 C           -4.8372     9.4965    -9.5128 C       0      r0     0.0625
    653 C           -4.8004     7.6418    -7.5700 C       5      r5     0.1169
    654 C           -4.8249     8.0690    -9.0137 C       0      r0     0.0040
    655 O           -4.6491     9.1469    -6.7260 O       5      r5    -0.4145
    656 C           -4.5403     6.6754    -6.5092 C       6      r6     0.2335
    657 H           -3.7846     7.4886    -9.2241 H       0      r0     0.0333
    658 C           -1.6975     7.2074    -9.6279 C       6      r6     0.2506
    659 C           -1.1965     6.2640    -7.6742 C       6      r6    -0.0160
    660 C           -1.3531     7.6144    -7.1622 C       6      r6    -0.0111
    661 C           -1.1162     8.7415    -8.0708 C       6      r6     0.0002
    662 C           -1.3321     8.6086    -9.4572 C       6      r6    -0.0446
    663 C           -0.6713     9.4071   -10.3781 C       5      r5     0.0236
    664 H            0.2621     6.7856   -11.1327 H       0      r0     0.0589
    665 C            2.1118     9.0629    -7.3034 C       0      r0     0.0110
    666 C            2.0550     7.6285   -10.0088 C       0      r0    -0.0181
    667 H            2.5721     6.6217   -10.0013 H       0      r0     0.0171
    668 C            2.4765     9.9453    -8.0375 C       0      r0    -0.0088
    669 C            3.0801     8.7132   -10.1772 C       0      r0     0.0014
    670 C            3.4007     9.9354    -9.4509 C       0      r0     0.0007
    671 H            5.8677     9.5844    -9.4361 H       0      r0     0.0206
    672 H            5.7560     7.7643    -9.0507 H       0      r0     0.0222
    673 H            5.9308     8.9401    -7.8141 H       0      r0     0.0174
    674 C            5.9677     8.4576    -9.7966 C       6      r6    -0.0365
    675 C            6.3082     9.0578    -6.7081 C       0      r0    -0.0097
    676 C            7.5766     8.4257   -10.3957 C       6      r6     0.0021
    677 C            7.6329     6.7578   -10.1917 C       6      r6    -0.0011
    678 C            8.4657     8.8434    -9.2594 C       6      r6    -0.0022
    679 C            8.8160     6.6257    -9.1048 C       5      r5     0.0029
    680 C            8.9369     7.7117    -8.2873 C       5      r5    -0.0158
    681 C            9.4005     7.8077    -6.9188 C       0      r0     0.0139
    682 H           12.7787     8.9385    -6.6494 H       0      r0     0.0251
    683 C          -14.7696    13.5848    -7.7809 C       0      r0     0.0025
    684 C          -14.8609    10.4518    -8.8988 C       0      r0    -0.0186
    685 H          -14.4575    10.4878    -7.7433 H       0      r0     0.0326
    686 C          -14.7989    12.5798    -8.5699 C       0      r0    -0.0074
    687 C          -13.9473    11.6683    -9.1516 C       0      r0    -0.0096
    688 H          -13.1222    11.7827   -10.0660 H       0      r0     0.0187
    689 H          -11.1395    14.0974    -8.2765 H       0      r0     0.0199
    690 C          -10.8661    11.5733    -6.8158 C       0      r0     0.0295
    691 C          -10.6669    14.1497   -10.3230 C       0      r0    -0.0032
    692 C           -9.8837    11.5517    -8.8594 C       0      r0     0.0227
    693 C           -9.8117    11.9561   -10.2984 C       0      r0    -0.0028
    694 C           -9.8590    11.0949    -7.5061 C       0      r0    -0.0734
    695 H           -8.3071    12.4843    -7.5511 H       0      r0     0.0652
    696 H           -7.8819    13.1871    -9.0898 H       0      r0     0.0322
    697 O           -7.4848    10.3952    -7.4116 O       0      r0    -0.4840
    698 C           -7.7766    13.2575    -8.0174 C       0      r0    -0.0393
    699 C           -6.4670    13.4540    -7.5793 C       0      r0     0.0351
    700 C           -5.0986    13.6541    -7.4095 C       0      r0     0.0074
    701 C           -4.3533    10.8459    -9.2059 C       0      r0     0.0517
    702 C           -3.7321    13.3139    -8.2027 C       0      r0     0.0104
    703 C           -3.6811    12.1209    -9.1001 C       0      r0    -0.0179
    704 H           -2.6899    12.1188    -9.4701 H       0      r0     0.0135
    705 C           -2.4794    13.4511    -7.8590 C       0      r0    -0.0054
    706 H           -1.9494    11.1504   -10.7403 H       0      r0     0.0126
    707 H           -1.3746    10.9668    -8.3013 H       0      r0     0.0184
    708 C           -1.3253    13.7156    -7.3003 C       0      r0    -0.0207
    709 C           -1.1815    10.1805    -7.5379 C       0      r0     0.0026
    710 H            1.7738    10.7338    -7.8470 H       0      r0     0.0253
    711 C            3.3915    12.4042   -10.6323 C       5      r5     0.1948
    712 O            4.0180    13.8596   -10.5085 O       5      r5    -0.4579
    713 C            4.0293    11.2712    -9.9621 C       0      r0    -0.0322
    714 C            5.0635    11.6509    -8.0814 C       0      r0     0.0114
    715 C            5.5068    11.6599    -6.6636 C       6      r6     0.0058
    716 C            5.3048    11.5094    -9.3570 C       0      r0     0.0234
    717 H            6.5877    13.8842    -8.6481 H       0      r0     0.0351
    718 C            6.7461    12.2203    -9.7530 C       0      r0     0.0110
    719 C            7.1959    13.5549    -9.5155 C       0      r0    -0.0018
    720 C            7.6577    11.0491   -10.0660 C       6      r6    -0.0058
    721 H            7.9908    11.5228    -6.6160 H       0      r0     0.0249
    722 C            8.3348    10.2901    -8.9448 C       6      r6    -0.0071
    723 C            8.3649   -14.1696   -10.2176 C       6      r6    -0.0001
    724 C            8.9595    11.3108    -6.7326 C       6      r6    -0.0334
    725 C            9.2285    13.9203    -6.5584 C       0      r0    -0.0208
    726 C            9.2225    11.2169    -8.3186 C       0      r0    -0.0009
    727 C           10.0800    12.1712    -8.9201 C       0      r0    -0.0218
    728 H           10.3654    12.9273    -8.2079 H       0      r0     0.0152
    729 H           10.8017    11.7370    -7.1108 H       0      r0     0.0286
    730 C           10.8578    12.3132   -10.1427 C       6      r6     0.0015
    731 C           11.8507    11.4907    -7.0584 C       0      r0    -0.0620
    732 C           11.6966    13.7633   -10.0891 C       6      r6    -0.0188
    733 H           12.1226    10.6099    -7.7263 H       0      r0     0.0230
    734 H           12.5136    13.8044    -9.2595 H       0      r0     0.0155
    735 H           12.3607    12.3885    -7.2268 H       0      r0     0.0228
    736 C          -14.6519   -10.8633    -5.0941 C       0      r0    -0.0166
    737 H          -14.5673   -11.9009    -5.1838 H       0      r0     0.0209
    738 C          -13.9356   -10.6236    -2.5397 C       6      r6     0.0215
    739 C          -13.2528   -14.0360    -6.0944 C       0      r0     0.0036
    740 C          -12.0192   -13.7041    -6.1454 C       0      r0    -0.0106
    741 C          -11.9297   -10.3700    -4.0780 C       6      r6     0.0076
    742 C          -11.6400   -11.1955    -2.9232 C       6      r6    -0.0227
    743 C          -11.2381   -11.0307    -5.3006 C       6      r6    -0.0084
    744 H          -10.7548   -11.7563    -2.7847 H       0      r0     0.0202
    745 C          -10.6014   -13.6480    -5.7156 C       6      r6    -0.0051
    746 C          -10.3853   -12.2007    -5.3519 C       6      r6     0.0001
    747 C           -9.4695   -10.4546    -6.5025 C       6      r6     0.0395
    748 C           -9.5323    14.1218    -5.0826 C       6      r6     0.0009
    749 C           -9.2617   -11.7707    -5.9256 C       6      r6     0.0074
    750 C           -8.9075   -13.6148    -2.2621 C       0      r0    -0.0021
    751 H           -8.6836   -10.6352    -3.1992 H       0      r0     0.0658
    752 C           -8.1657   -12.7373    -5.9539 C       6      r6    -0.0134
    753 C           -8.1450   -13.9470    -5.4371 C       6      r6    -0.0167
    754 C           -8.0077   -11.1016    -2.4776 C       0      r0    -0.0333
    755 C           -6.6244   -10.3005    -5.5669 C       0      r0     0.3355
    756 C           -6.6344   -11.2345    -2.9594 C       0      r0     0.0197
    757 H           -6.3784   -12.1561    -3.1681 H       0      r0     0.0143
    758 C           -5.6359   -11.1954    -6.0560 C       6      r6    -0.1120
    759 C           -5.6549   -10.3789    -2.5427 C       0      r0    -0.0209
    760 C           -4.7374   -11.4597    -4.7994 C       6      r6     0.0070
    761 H           -4.4710   -10.5578    -2.7596 H       0      r0     0.0192
    762 C           -4.5628   -12.7489    -4.3156 C       6      r6    -0.0124
    763 C           -4.4119   -13.7168    -5.4435 C       6      r6    -0.0155
    764 C           -3.4853   -13.2907    -3.2935 C       0      r0    -0.0107
    765 H           -2.4900   -10.7766    -3.6960 H       0      r0     0.0310
    766 C           -2.1600   -12.8966    -3.9655 C       0      r0    -0.0134
    767 C           -0.7300   -13.1000    -3.8160 C       0      r0     0.0040
    768 C            0.1558   -12.4771    -4.7809 C       0      r0    -0.0038
    769 C            0.6518   -11.7600    -5.6545 C       0      r0    -0.0003
    770 H            1.6500   -10.4432    -2.6617 H       0      r0     0.0437
    771 C            2.2474   -11.4623    -5.6515 C       5      r5     0.0008
    772 C            2.3007   -10.3262    -3.6107 C       0      r0    -0.0215
    773 C            2.8123   -11.2794    -4.5328 C       5      r5     0.0064
    774 H            3.0099   -13.3431    -6.4154 H       0      r0     0.0301
    775 C            4.1968   -11.7061    -4.6938 C       5      r5    -0.0246
    776 C            4.4787   -11.4228    -6.0241 C       5      r5     0.0018
    777 H            5.0249   -11.7294    -3.9451 H       0      r0     0.0142
    778 H            6.7460   -13.0470    -4.7055 H       0      r0     0.0159
    779 C            7.5298   -13.9548    -4.8043 C       0      r0    -0.0356
    780 H            7.4570   -14.1422    -2.6884 H       0      r0     0.0150
    781 C            8.2004   -13.7193    -6.3346 C       0      r0    -0.0009
    782 H            8.3437   -14.1205    -4.0114 H       0      r0     0.0148
    783 H            8.7150   -11.4216    -3.5406 H       0      r0     0.0122
    784 C            9.6186   -11.0131    -4.2575 C       5      r5    -0.0159
    785 C            9.8395   -10.9705    -5.7611 C       6      r6    -0.0022
    786 C           10.1265   -14.1132    -2.3076 C       0      r0    -0.0175
    787 C           10.2973   -12.4234    -4.0853 C       0      r0     0.0043
    788 C           10.2251   -12.7756    -2.5934 C       0      r0    -0.0092
    789 H           11.1354   -12.7372    -6.2387 H       0      r0     0.0148
    790 C           10.8062   -13.1822    -5.0693 C       0      r0    -0.0155
    791 C           11.1134   -10.2397    -5.9439 C       6      r6     0.0083
    792 H           13.3021   -13.1456    -3.5771 H       0      r0     0.0365
    793 C           13.7148   -11.3658    -6.3275 C       0      r0    -0.0267
    794 H           13.6902   -12.2288    -5.9838 H       0      r0     0.0227
    795 C           13.4949   -14.1631    -4.0603 C       5      r5    -0.0269
    796 C           14.4782   -10.3654    -5.5284 C       0      r0    -0.0122
    797 H           14.9698   -13.1737    -3.1003 H       0      r0     0.0259
    798 C          -15.0965    -7.0637    -3.6342 C       0      r0    -0.0204
    799 H          -15.0852    -7.8836    -3.0029 H       0      r0     0.0208
    800 C          -14.1038   -10.0998    -3.8012 C       6      r6    -0.0029
    801 C          -14.0701    -7.1958    -4.5676 C       0      r0    -0.0034
    802 C          -13.0201    -7.1069    -5.5968 C       6      r6    -0.0047
    803 C          -12.9761    -9.3488    -4.4049 C       6      r6    -0.0052
    804 C          -12.3112    -8.4104    -5.2629 C       6      r6    -0.0009
    805 C          -11.1596    -8.5886    -6.0542 C       6      r6     0.0042
    806 C          -10.5906    -9.8778    -5.8145 C       6      r6     0.0158
    807 O           -7.4104    -9.5500    -4.9760 O       0      r0    -0.5087
    808 C           -6.6898    -8.1180    -2.2412 C       0      r0     0.0381
    809 C           -5.5517    -8.9485    -2.4930 C       0      r0     0.0374
    810 H           -4.8474    -9.1122    -4.9611 H       0      r0     0.0454
    811 C           -4.0323   -10.0035    -5.1753 C       0      r0    -0.0381
    812 C           -4.1362    -8.3610    -2.3249 C       5      r5    -0.0693
    813 H           -3.8632   -10.0694    -6.2027 H       0      r0     0.0270
    814 C           -2.9910    -8.8180    -3.1496 C       5      r5     0.0237
    815 C           -2.8274    -9.9115    -4.1924 C       0      r0    -0.0300
    816 C           -2.5409    -6.5471    -2.6782 C       5      r5    -0.0195
    817 C           -2.2255    -7.7409    -3.6661 C       5      r5     0.0188
    818 H           -2.1156    -9.6797    -5.0566 H       0      r0     0.0289
    819 C           -0.9556    -7.1913    -4.1412 C       5      r5     0.0494
    820 C           -0.4911    -8.0576    -5.1780 C       0      r0     0.0163
    821 C            0.0953    -8.6125    -6.0485 C       0      r0    -0.0153
    822 H            0.8045    -7.9956    -6.6902 H       0      r0     0.0219
    823 C            2.5474    -9.1900    -4.2382 C       0      r0     0.0107
    824 C            2.7965    -6.7179    -5.6097 C       6      r6    -0.0004
    825 C            2.7472    -7.9214    -4.8490 C       0      r0    -0.0039
    826 C            4.2639    -6.1022    -3.6611 C       0      r0     0.0006
    827 C            4.8010    -7.3075    -3.4274 C       0      r0    -0.0017
    828 C            5.1657    -8.3777    -4.6097 C       0      r0    -0.0127
    829 C            5.0780    -8.4879    -5.8566 C       0      r0    -0.0180
    830 H            5.4168    -9.1564    -3.7369 H       0      r0     0.0170
    831 C            5.4632    -7.7984    -2.1588 C       0      r0     0.0133
    832 C            6.8484    -7.7493    -2.2488 C       0      r0     0.0131
    833 C            7.6636    -7.1272    -3.1107 C       0      r0    -0.0017
    834 C            8.2034    -6.3940    -4.0819 C       0      r0     0.0088
    835 H            8.5478    -8.0365    -5.5264 H       0      r0     0.0332
    836 C            9.1988    -7.3033    -4.8942 C       0      r0    -0.0093
    837 C           10.4701    -6.8955    -5.0508 C       0      r0     0.0102
    838 C           10.3286    -9.7529    -3.7333 C       5      r5     0.0073
    839 C           10.9520    -9.2536    -2.5339 C       0      r0    -0.0153
    840 C           11.4905    -9.6568    -4.6612 C       5      r5    -0.0179
    841 C           11.5666    -6.3559    -4.9584 C       7      r7    -0.0028
    842 C           11.9906    -8.2305    -2.2205 C       0      r0     0.0071
    843 H           12.3806    -9.3228    -4.3500 H       0      r0     0.0283
    844 C           12.5575    -7.5502    -3.1537 C       0      r0    -0.0097
    845 C           12.8895    -7.0026    -4.3101 C       7      r7    -0.0044
    846 C           14.0793    -6.2749    -4.0968 C       7      r7     0.0009
    847 H           14.0599    -9.4249    -5.7313 H       0      r0     0.0179
    848 C          -14.2493    -2.3553    -5.1482 C       0      r0     0.0016
    849 C          -11.9127    -2.5546    -6.1048 C       0      r0    -0.0082
    850 H          -12.2058    -3.6772    -6.0424 H       0      r0     0.0234
    851 C          -10.6646    -1.9776    -6.2418 C       0      r0    -0.0123
    852 H           -9.8720    -2.7039    -6.0869 H       0      r0     0.0312
    853 H           -8.3359    -5.5293    -5.7610 H       0      r0     0.0144
    854 C           -7.7071    -4.6697    -5.9900 C       0      r0     0.2198
    855 O           -7.1704    -4.1792    -4.6666 O       0      r0    -0.6046
    856 H           -7.3116    -2.7557    -1.9613 H       0      r0     0.0406
    857 H           -6.7049    -4.9879    -4.3505 H       0      r0     0.2897
    858 H           -4.1743    -3.7601    -5.2105 H       0      r0     0.0788
    859 C           -4.1276    -2.6721    -5.5236 C       0      r0     0.0027
    860 H           -2.7154    -4.1546    -2.1530 H       0      r0     0.0795
    861 O           -1.8312    -5.0153    -5.8007 O       0      r0    -0.4571
    862 C           -1.6277    -5.6126    -2.8339 C       5      r5     0.0471
    863 C           -0.9471    -4.1801    -6.4496 C       0      r0     0.2984
    864 C           -0.5985    -6.1351    -3.6217 C       5      r5     0.0072
    865 C            0.0712    -3.4038    -3.1094 C       0      r0    -0.0080
    866 C           -0.0225    -3.4602    -4.3693 C       0      r0     0.0604
    867 C            0.0916    -3.3911    -5.6726 C       0      r0    -0.0772
    868 H            0.3404    -5.6899    -4.2231 H       0      r0     0.0310
    869 H            1.0246    -2.8934    -6.0574 H       0      r0     0.0318
    870 C            3.1064    -3.0671    -4.4138 C       0      r0    -0.0270
    871 C            3.2355    -4.3001    -5.3510 C       6      r6    -0.0015
    872 C            3.4548    -5.7293    -4.7740 C       6      r6    -0.0068
    873 H            3.5842    -2.7933    -3.5711 H       0      r0     0.0208
    874 C            4.6442    -5.2162    -2.2793 C       0      r0    -0.0406
    875 C            5.1683    -3.0046    -5.8819 C       7      r7    -0.0101
    876 C            5.8003    -4.6345    -2.8678 C       0      r0     0.0342
    877 H            6.4604    -5.9809    -4.5957 H       0      r0     0.0258
    878 H            7.1868    -3.2504    -2.1746 H       0      r0     0.0397
    879 C            6.8000    -3.7066    -3.0697 C       0      r0    -0.0289
    880 C            7.4145    -5.4318    -4.9681 C       0      r0    -0.0296
    881 H            7.1994    -2.1969    -3.9873 H       0      r0     0.0249
    882 H            7.5524    -5.0296    -6.0187 H       0      r0     0.0409
    883 C            7.6806    -4.0382    -4.2205 C       0      r0     0.0068
    884 C            8.9582    -2.4108    -6.3172 C       0      r0    -0.0391
    885 C            9.0018    -3.4363    -4.0096 C       0      r0    -0.0236
    886 H            9.5938    -3.1303    -4.7481 H       0      r0     0.0264
    887 C           10.0338    -4.1450    -3.3298 C       0      r0     0.0063
    888 H            9.9188    -2.0766    -6.6638 H       0      r0     0.0303
    889 H           10.7551    -5.1094    -6.3046 H       0      r0     0.0497
    890 C           10.9049    -4.7712    -2.5855 C       0      r0    -0.0272
    891 C           11.6134    -5.0306    -5.6729 C       7      r7    -0.0237
    892 H           11.9398    -5.0239    -2.8770 H       0      r0     0.0190
    893 C           12.2227    -2.4275    -5.8865 C       6      r6    -0.0034
    894 C           12.4142    -3.8991    -5.4055 C       5      r5    -0.0013
    895 C           13.9861    -3.9878    -5.2882 C       5      r5    -0.0042
    896 H           14.4792    -2.9054    -3.7926 H       0      r0     0.0226
    897 C           14.2185    -5.4601    -5.2725 C       7      r7    -0.0000
    898 C           14.5886    -2.5937    -4.8084 C       5      r5    -0.0223
    899 C          -14.5648    -0.3307    -2.5824 C       6      r6     0.0022
    900 C          -14.2195     0.9402    -2.9990 C       6      r6    -0.0192
    901 C          -13.6120    -1.4521    -2.8841 C       0      r0    -0.0224
    902 H          -13.1122    -0.7758    -5.4879 H       0      r0     0.0206
    903 C          -13.1729    -1.8692    -5.4403 C       0      r0    -0.0183
    904 H          -13.1678     1.1302    -3.2771 H       0      r0     0.0217
    905 H          -12.5144    -1.6019    -2.9191 H       0      r0     0.0192
    906 C          -11.8463     1.1710    -5.6009 C       0      r0    -0.0146
    907 H          -11.0976    -0.5752    -2.5568 H       0      r0     0.0160
    908 C          -11.3898    -0.1311    -4.9471 C       0      r0     0.0006
    909 C          -10.7251    -0.4019    -3.6251 C       0      r0    -0.0346
    910 H          -10.2596    -1.3855    -3.7434 H       0      r0     0.0228
    911 C           -9.7997     1.8420    -2.2619 C       7      r7     0.0016
    912 C           -9.4778     0.7783    -3.4321 C       0      r0    -0.0168
    913 H           -9.4208    -2.0541    -2.6615 H       0      r0     0.0238
    914 H           -9.0672     1.0711    -4.4857 H       0      r0     0.0169
    915 C           -8.5734    -1.4049    -2.7945 C       5      r5    -0.0197
    916 C           -8.1841     0.1246    -3.0620 C       5      r5    -0.0043
    917 C           -7.3181    -1.7435    -2.5426 C       5      r5     0.0133
    918 H           -7.3479    -2.0839    -5.7642 H       0      r0     0.0674
    919 C           -6.8903     0.5541    -2.5463 C       5      r5    -0.0065
    920 H           -6.0308     0.5757    -6.4059 H       0      r0     0.0131
    921 C           -6.0795    -0.6970    -2.6261 C       5      r5     0.0050
    922 C           -5.8478     1.0744    -5.4620 C       0      r0    -0.0205
    923 C           -4.5228     0.7152    -4.5193 C       4      r4    -0.0011
    924 C           -4.4439    -0.4560    -3.7395 C       4      r4     0.0100
    925 C           -4.2684    -1.5906    -4.5409 C       0      r0     0.0284
    926 C           -3.3919     1.2683    -4.0144 C       4      r4     0.0112
    927 C           -3.1998     0.3743    -2.9270 C       4      r4    -0.0035
    928 H           -2.2214    -0.1017    -2.5465 H       0      r0     0.0941
    929 H           -2.1504     1.5521    -5.7755 H       0      r0     0.0496
    930 C           -0.8235     1.9831    -2.8242 C       5      r5     0.2088
    931 O           -0.2300     0.7109    -3.7634 O       0      r0    -0.6537
    932 H            0.4267     1.1036    -6.1469 H       0      r0     0.0495
    933 H            0.6067     0.8066    -3.7171 H       0      r0     0.3238
    934 C            1.2946     0.3279    -6.2661 C       0      r0    -0.0123
    935 C            1.8826    -0.7958    -5.4156 C       0      r0     0.0144
    936 C            2.3650    -1.9911    -5.0434 C       0      r0    -0.0046
    937 H            3.6609     1.3547    -6.6528 H       0      r0     0.0255
    938 C            3.8258     1.4425    -5.6377 C       5      r5    -0.0189
    939 C            4.1256     1.2867    -3.2592 C       5      r5     0.0019
    940 C            4.2980     0.1480    -5.2358 C       6      r6     0.0028
    941 C            4.7127     0.1779    -3.8600 C       6      r6     0.0004
    942 C            4.7603    -0.7791    -6.0443 C       6      r6    -0.0043
    943 C            5.7565    -0.7513    -3.3876 C       6      r6     0.0061
    944 C            5.7766    -1.6773    -5.6950 C       6      r6     0.0001
    945 C            6.4028    -1.5134    -4.3199 C       6      r6    -0.0165
    946 H            7.8777     1.3717    -1.8866 H       0      r0     0.2976
    947 H            8.2528    -1.8987    -5.6309 H       0      r0     0.0291
    948 O            8.5505     1.8310    -2.2887 O       0      r0    -0.6473
    949 H           11.0272     0.2738    -2.4935 H       0      r0     0.0585
    950 C           12.0779    -0.0517    -2.2794 C       7      r7    -0.0238
    951 C           13.2899    -1.6371    -5.3835 C       6      r6     0.0053
    952 C           13.4179    -0.3218    -5.7732 C       6      r6    -0.0223
    953 C           13.4623     0.5364    -2.9847 C       6      r6     0.0059
    954 H           14.2735     0.2222    -5.6198 H       0      r0     0.0172
    955 C           13.8931     2.0069    -3.4651 C       6      r6    -0.0203
    956 C           14.3059    -0.3947    -2.1038 C       6      r6     0.0031
    957 C          -14.9790     2.2911    -2.9302 C       6      r6     0.0030
    958 C          -14.5880     3.5566    -2.7069 C       0      r0     0.0030
    959 C          -14.0714     4.7651    -2.6816 C       0      r0     0.0117
    960 C          -13.5534     5.2883    -3.9014 C       0      r0    -0.0068
    961 C          -12.9640     4.4814    -4.8857 C       0      r0    -0.0030
    962 C          -13.0262     3.4177    -5.8131 C       3      r3    -0.0088
    963 C          -12.0771     2.2943    -6.2725 C       3      r3    -0.0058
    964 H          -11.4629     3.5251    -2.9961 H       0      r0     0.0259
    965 H          -10.2290     5.3425    -7.2135 H       0      r0     0.0153
    966 C          -10.3717     3.2642    -2.7646 C       7      r7    -0.0388
    967 H           -9.8758     3.4044    -3.6348 H       0      r0     0.0220
    968 C           -7.8535     5.6116    -2.3413 C       0      r0    -0.0198
    969 C           -7.7372     5.5156    -5.6077 C       0      r0     0.0050
    970 C           -7.2518     4.4068    -4.9803 C       5      r5     0.0068
    971 C           -6.9645     3.2637    -6.2021 C       5      r5    -0.0208
    972 C           -6.7538     2.7878    -3.8010 C       5      r5    -0.0005
    973 C           -6.6824     2.0756    -2.5319 C       0      r0    -0.0028
    974 C           -6.4179     4.0101    -3.8983 C       5      r5    -0.0105
    975 C           -6.5876     2.2479    -5.1204 C       5      r5     0.0019
    976 H           -6.0214     4.8339    -3.0394 H       0      r0     0.0191
    977 C           -3.6246     4.6254    -5.4064 C       6      r6     0.2307
    978 C           -3.5263     5.2530    -4.1727 C       6      r6    -0.0652
    979 C           -3.1726     3.2470    -5.3667 C       7      r7    -0.0528
    980 C           -2.5674     5.1614    -2.9364 C       5      r5     0.0064
    981 C           -2.6187     2.4445    -4.3915 C       7      r7     0.0302
    982 C           -2.1034     3.9531    -2.4081 C       5      r5     0.0040
    983 C           -1.9425     2.8016    -3.1807 C       5      r5    -0.0431
    984 C            0.1195     5.0019    -6.1053 C       0      r0    -0.0060
    985 C            0.5257     6.1732    -5.4559 C       0      r0    -0.0058
    986 C            1.1095     3.6824    -5.9795 C       0      r0    -0.0049
    987 C            1.6020     3.1715    -4.7747 C       0      r0    -0.0026
    988 H            2.2866     5.5838    -3.9033 H       0      r0     0.0162
    989 C            2.3967     2.6276    -3.8315 C       5      r5    -0.0109
    990 C            2.5964     2.6172    -2.2820 C       5      r5    -0.0084
    991 C            3.1063     5.9261    -3.4275 C       5      r5    -0.0131
    992 C            3.4087     1.9495    -4.3096 C       5      r5     0.0011
    993 C            3.8635     5.1776    -2.4719 C       5      r5    -0.0161
    994 H            4.4644     4.2840    -2.4275 H       0      r0     0.0177
    995 H            4.4496     4.8518    -5.7555 H       0      r0     0.0187
    996 C            5.3540     4.8687    -6.3809 C       0      r0    -0.0196
    997 C            6.2584     5.6281    -5.9141 C       0      r0     0.0001
    998 H            6.6267     3.9728    -2.7177 H       0      r0     0.0412
    999 C            9.5121     5.2560    -5.9647 C       0      r0    -0.0159
   1000 H            9.1873     4.7387    -5.0961 H       0      r0     0.0379
   1001 H           10.7315     4.6398    -2.9277 H       0      r0     0.0359
   1002 C           10.8147     5.3224    -6.4438 C       0      r0     0.0095
   1003 C           11.5168     4.4489    -3.7139 C       0      r0    -0.0322
   1004 H           11.8171     4.9839    -4.4754 H       0      r0     0.0364
   1005 C           12.0427     3.4355    -2.7715 C       0      r0     0.0124
   1006 C           13.1333     2.8258    -2.3670 C       0      r0     0.0039
   1007 H           13.7525     1.8565    -4.6036 H       0      r0     0.0179
   1008 C          -14.9801     9.9193    -2.7413 C       6      r6    -0.0149
   1009 H          -14.1718     8.2610    -5.4421 H       0      r0     0.0304
   1010 C          -13.5282     7.3860    -4.9150 C       0      r0    -0.0347
   1011 C          -12.9078     6.6648    -3.6911 C       0      r0     0.0067
   1012 C          -12.4440     7.3613    -5.7057 C       0      r0     0.0680
   1013 C          -11.9176     6.8960    -2.5967 C       0      r0    -0.0299
   1014 C          -11.1066     7.0875    -5.9296 C       6      r6    -0.0465
   1015 C          -10.6609     7.5035    -2.8785 C       7      r7    -0.0032
   1016 C           -9.9240     6.6676    -4.9887 C       6      r6     0.0010
   1017 C           -9.5935     6.8813    -3.6933 C       7      r7    -0.0012
   1018 H           -8.9467     9.2049    -6.6191 H       0      r0    -0.0131
   1019 C           -8.8454     9.3425    -2.4234 C       6      r6    -0.0089
   1020 C           -8.6006     6.4855    -5.8690 C       6      r6    -0.0162
   1021 C           -8.2208     6.9968    -2.9464 C       7      r7    -0.0146
   1022 H           -7.1975     7.5647    -4.9170 H       0      r0     0.0397
   1023 C           -7.5691     9.0112    -3.0999 C       5      r5     0.0043
   1024 C           -7.1685     7.6495    -3.7719 C       7      r7    -0.0261
   1025 C           -6.6493    10.1857    -3.0181 C       5      r5     0.0029
   1026 H           -6.1386     7.0247    -3.3647 H       0      r0     0.0209
   1027 C           -4.8261     9.3648    -4.0099 C       6      r6    -0.0470
   1028 C           -4.6020     8.7488    -5.2482 C       6      r6     0.2312
   1029 C           -4.0989     8.6107    -3.0232 C       6      r6     0.0020
   1030 C           -4.4271     7.3275    -5.1578 C       6      r6    -0.0862
   1031 C           -3.9242     6.6243    -4.0272 C       6      r6     0.0410
   1032 C           -3.8563     7.2911    -2.9289 C       6      r6    -0.0191
   1033 C           -1.2312     9.9680    -3.4848 C       0      r0    -0.0438
   1034 H           -0.9869     7.5089    -6.1554 H       0      r0     0.0260
   1035 C            0.0948    10.1554    -4.1827 C       5      r5     0.0180
   1036 C            0.5505     9.8329    -5.5443 C       5      r5     0.0211
   1037 H            1.0532     6.7364    -3.5247 H       0      r0     0.0166
   1038 C            0.8373     7.0741    -4.4834 C       0      r0    -0.0158
   1039 C            1.2959     8.6773    -6.2316 C       0      r0     0.0194
   1040 C            1.8688     7.8443    -5.2456 C       0      r0    -0.0422
   1041 C            3.0653     8.2091    -4.5994 C       6      r6     0.2496
   1042 O            3.3224     9.6620    -4.4578 O       6      r6    -0.5316
   1043 C            3.5961     7.3353    -3.5451 C       6      r6    -0.0580
   1044 C            4.1441     9.7629    -3.1384 C       6      r6     0.2277
   1045 C            4.3461     7.5570    -2.3818 C       6      r6     0.0363
   1046 H            5.9655     8.1154    -4.6453 H       0      r0     0.0274
   1047 C            6.5155     8.0238    -5.7117 C       0      r0    -0.0096
   1048 H            7.0697     9.6205    -4.3018 H       0      r0     0.0276
   1049 H            7.5189     8.2097    -2.2364 H       0      r0     0.0277
   1050 C            7.3449     6.5876    -5.8517 C       0      r0    -0.0029
   1051 C            8.7274     6.5097    -6.2077 C       0      r0     0.0243
   1052 C            9.4911     9.0870    -6.4800 C       0      r0     0.0217
   1053 C            9.7508     7.5815    -2.5275 C       0      r0     0.2935
   1054 C           10.3833     9.6096    -3.5909 C       5      r5     0.1556
   1055 O           10.3371     8.0275    -3.8588 O       0      r0    -0.4802
   1056 C           10.6943    10.1517    -2.4218 C       5      r5     0.2209
   1057 H           12.9231     6.3575    -6.5485 H       0      r0     0.0231
   1058 C           12.9065     9.7130    -5.7628 C       6      r6    -0.0121
   1059 H           13.2396     7.4906    -3.5562 H       0      r0     0.0513
   1060 C           13.6320     9.4037    -4.5929 C       6      r6     0.0178
   1061 C           14.0639     7.9731    -3.9892 C       5      r5    -0.0445
   1062 H           14.2129     7.6064    -4.8853 H       0      r0     0.0264
   1063 C           14.8051     8.4593    -2.7046 C       6      r6     0.0049
   1064 H          -13.8560   -13.9213    -3.9258 H       0      r0     0.0174
   1065 H          -13.8373     9.8344    -3.2835 H       0      r0     0.0154
   1066 C          -13.5154    13.9015    -4.7489 C       0      r0    -0.0209
   1067 C          -12.3067    13.0943    -4.5275 C       0      r0    -0.0003
   1068 C          -11.5328    11.4406    -5.6953 C       0      r0    -0.0248
   1069 C          -11.3135    12.4539    -4.4003 C       0      r0    -0.0034
   1070 H          -11.6054    10.4375    -5.3158 H       0      r0     0.0280
   1071 C          -10.0558   -14.0873    -2.6859 C       0      r0    -0.0188
   1072 C          -10.1395    13.3590    -3.9153 C       0      r0    -0.0180
   1073 H           -9.3061    12.7030    -3.9967 H       0      r0     0.0237
   1074 C           -7.1950    11.1529    -2.1426 C       5      r5    -0.0040
   1075 H           -7.3002    13.8936    -5.2581 H       0      r0     0.0251
   1076 H           -5.7377    13.2880    -2.1922 H       0      r0     0.0182
   1077 H           -5.9583    10.9761    -5.0252 H       0      r0     0.0726
   1078 C           -5.5427    10.6953    -3.9257 C       6      r6     0.0004
   1079 C           -4.4171    11.4395    -3.0307 C       6      r6    -0.0147
   1080 H           -3.6429    14.0446    -5.1138 H       0      r0     0.0236
   1081 H           -4.0113    12.3641    -3.2215 H       0      r0     0.0230
   1082 C           -3.1971    14.2323    -2.4081 C       0      r0    -0.0119
   1083 H           -2.3442     9.7986    -3.7453 H       0      r0     0.0286
   1084 H           -1.0003    10.7005    -2.7001 H       0      r0     0.0264
   1085 C           -0.8088    13.8246    -3.5839 C       0      r0     0.0049
   1086 C           -0.4703    13.1763    -6.2097 C       6      r6    -0.0017
   1087 C           -0.4359    10.5001    -6.3176 C       5      r5    -0.0102
   1088 C           -0.3113    11.7750    -5.7386 C       6      r6     0.0009
   1089 C            0.0333    12.7354    -3.4106 C       0      r0    -0.0024
   1090 C            0.4846    11.7075    -4.3653 C       6      r6     0.0048
   1091 C            0.6951    13.8613    -5.7296 C       6      r6    -0.0027
   1092 C            2.0202    12.1343    -4.8584 C       6      r6    -0.0005
   1093 C            2.0765    13.3836    -5.3705 C       6      r6     0.0016
   1094 H            3.1251    11.5635    -4.6371 H       0      r0     0.0979
   1095 C            3.2183   -14.1149    -5.7923 C       0      r0    -0.0173
   1096 C            4.4212    13.6255    -5.6920 C       0      r0     0.0054
   1097 C            4.3657    11.0392    -2.7145 C       0      r0    -0.0431
   1098 C            5.4725    12.8028    -5.7083 C       6      r6     0.0013
   1099 C            6.2384    10.5450    -6.0178 C       6      r6     0.0155
   1100 C            6.7402    13.2691    -4.9768 C       6      r6    -0.0034
   1101 C            6.6280    12.2276    -2.6842 C       5      r5    -0.0178
   1102 C            6.9475    10.6648    -4.8537 C       6      r6    -0.0167
   1103 C            6.8531    12.0529    -4.1885 C       6      r6     0.0002
   1104 H            7.3011    11.5126    -2.1908 H       0      r0     0.0279
   1105 H            8.8778    12.5883    -4.8317 H       0      r0     0.0200
   1106 C            9.3875    12.7092    -5.7962 C       6      r6    -0.0152
   1107 C            9.5874    10.2278    -5.8400 C       6      r6     0.0226
   1108 H            9.9037    13.5220    -3.0593 H       0      r0     0.0216
   1109 C           10.4151    10.4861    -4.6014 C       6      r6    -0.0330
   1110 C           10.5827    12.7637    -5.1161 C       6      r6    -0.0038
   1111 C           10.7707    11.8811    -4.1240 C       6      r6     0.0023
   1112 C           10.8308    11.5608    -2.7426 C       5      r5    -0.0552
   1113 C           11.4249    13.8053    -5.3211 C       0      r0    -0.0067
   1114 C           12.2686    10.9103    -5.6730 C       6      r6     0.0161
   1115 H           12.2046    13.2198    -2.1729 H       0      r0     0.0231
   1116 C           12.7543    13.5042    -5.1015 C       5      r5     0.0015
   1117 C           12.9864    12.0435    -5.0071 C       6      r6    -0.0067
   1118 C           14.2477    11.7782    -4.2247 C       6      r6    -0.0029
   1119 C           14.3363    13.2867    -3.5940 C       5      r5    -0.0022
   1120 C           14.5141    10.3936    -4.0272 C       6      r6    -0.0068
   1121 C           15.1466    13.4416    -2.3347 C       7      r7    -0.0044
   1122 C          -15.1326   -10.1789    -1.8261 C       0      r0    -0.0684
   1123 H          -14.5515   -13.0926    -1.7337 H       0      r0     0.0336
   1124 C          -13.9830   -11.6554     1.3407 C       0      r0    -0.0018
   1125 C          -13.3273   -11.9240     0.3367 C       0      r0    -0.0068
   1126 H          -13.0830   -13.5912     1.2103 H       0      r0     0.0200
   1127 C          -12.5960   -11.0582    -1.8562 C       6      r6    -0.0015
   1128 C          -12.5008   -12.1013    -0.8400 C       0      r0    -0.0222
   1129 H          -11.7972   -13.1491    -0.7773 H       0      r0     0.0147
   1130 H          -11.6930   -10.3519     0.1507 H       0      r0     0.0194
   1131 H           -9.6168   -11.5449    -1.0993 H       0      r0     0.0215
   1132 H          -10.0189   -10.8544     0.8155 H       0      r0     0.0230
   1133 C           -9.5313   -11.3973     0.0240 C       0      r0    -0.0461
   1134 H           -9.8839   -13.8292    -0.0322 H       0      r0     0.0227
   1135 C           -8.5973   -12.0535     0.5584 C       0      r0     0.0065
   1136 C           -7.8644   -12.7359    -2.0642 C       0      r0    -0.0065
   1137 H           -7.6448   -10.5005    -1.5344 H       0      r0     0.0239
   1138 C           -7.7988   -12.6111     1.5018 C       0      r0    -0.0254
   1139 C           -6.9612   -13.7642     1.0521 C       6      r6     0.0035
   1140 C           -6.8226   -13.0335    -1.1967 C       0      r0    -0.0011
   1141 H           -6.0634   -10.7072     2.1612 H       0      r0     0.0211
   1142 C           -6.5256   -14.1767    -0.3137 C       6      r6    -0.0075
   1143 C           -5.9307   -10.5946     1.1610 C       0      r0    -0.0548
   1144 C           -5.9671   -11.4035     0.1500 C       0      r0     0.0072
   1145 C           -5.7249   -12.0657    -1.0468 C       0      r0    -0.0288
   1146 H           -4.7341   -12.4947    -1.2961 H       0      r0     0.0186
   1147 H           -5.0852   -12.4088     1.6124 H       0      r0     0.0189
   1148 H           -2.8991   -12.3994    -1.4745 H       0      r0     0.0260
   1149 C           -2.8685   -12.9203    -0.5262 C       5      r5    -0.0561
   1150 H           -2.9232   -11.4471     1.1755 H       0      r0     0.0215
   1151 C           -2.3864   -12.4338     0.8127 C       5      r5    -0.0637
   1152 C           -2.1985   -14.2229    -0.4359 C       5      r5     0.1801
   1153 H           -1.9964   -10.8809     0.0216 H       0      r0     0.0481
   1154 C           -1.2905   -13.2874     1.2413 C       5      r5     0.2106
   1155 H            1.4716    14.0890     0.0569 H       0      r0     0.0680
   1156 C            2.3288   -13.6461    -0.2585 C       0      r0    -0.0100
   1157 C            2.8445   -13.3035    -1.6198 C       6      r6     0.0080
   1158 H            3.1533   -11.1989     2.0573 H       0      r0     0.0318
   1159 C            4.0436   -12.3915    -1.4955 C       6      r6    -0.0051
   1160 C            4.2132   -11.0587    -1.6900 C       0      r0    -0.0054
   1161 C            4.3264   -13.5715     1.7170 C       0      r0    -0.0047
   1162 C            5.1539   -13.1484    -0.7173 C       6      r6    -0.0065
   1163 C            5.7613   -13.5960     1.5686 C       6      r6    -0.0064
   1164 C            6.2398   -13.1848     0.2253 C       6      r6    -0.0075
   1165 C            7.7125   -12.6767     0.0132 C       6      r6    -0.0012
   1166 C            8.2301   -11.9605    -1.1464 C       0      r0    -0.0245
   1167 C            8.0104   -10.5861    -0.7241 C       0      r0    -0.0004
   1168 C            8.2300   -14.0288     2.1415 C       6      r6     0.0041
   1169 H            8.4528   -12.3046    -2.0762 H       0      r0     0.0157
   1170 C            8.5160   -13.4771     0.8487 C       6      r6    -0.0007
   1171 C           10.0180   -13.2098     0.2347 C       7      r7    -0.0030
   1172 C           10.3758   -11.3383     1.2832 C       7      r7     0.0152
   1173 H           10.3126   -11.8184    -1.7980 H       0      r0     0.0379
   1174 C           10.6006    14.2254    -0.8610 C       7      r7     0.0128
   1175 C           11.0651   -12.3771     0.6911 C       7      r7     0.0321
   1176 C           12.6453   -12.3301     0.9641 C       5      r5     0.0130
   1177 C           12.7056   -13.8021     1.4398 C       5      r5     0.0180
   1178 C           13.0512   -11.6288     2.2992 C       5      r5     0.0144
   1179 H           13.4789   -12.5166     0.1704 H       0      r0     0.0792
   1180 O           13.2377   -11.2490    -1.2243 O       0      r0    -0.4661
   1181 H           13.7907   -13.1982    -1.6178 H       0      r0     0.0774
   1182 C           14.8723   -13.5862    -1.9737 C       0      r0    -0.0545
   1183 H          -13.3556    -7.5443    -1.8534 H       0      r0     0.0200
   1184 H          -13.5354    -8.5625    -0.4267 H       0      r0     0.0167
   1185 C          -13.2425    -7.5516     0.0003 C       0      r0    -0.0131
   1186 C          -13.4354    -6.6742    -1.1918 C       0      r0    -0.0149
   1187 C          -12.7700    -6.9217     1.1824 C       0      r0    -0.0135
   1188 C          -11.5776    -9.3257     2.0305 C       7      r7     0.0005
   1189 C          -11.3566    -6.6819     1.1441 C       7      r7    -0.0025
   1190 C          -11.4118    -9.4106     0.6789 C       7      r7    -0.0265
   1191 C          -10.9443    -8.3529    -0.4164 C       5      r5     0.0021
   1192 C          -10.6051    -6.8837    -0.0744 C       5      r5    -0.0008
   1193 H           -9.7298    -9.2898    -1.8416 H       0      r0     0.0278
   1194 C           -9.7739    -8.5233    -1.2061 C       5      r5    -0.0239
   1195 C           -9.4300    -6.1970    -0.5178 C       5      r5    -0.0051
   1196 C           -9.0605    -7.2501    -1.5516 C       5      r5     0.0104
   1197 C           -7.6268    -7.0570    -2.0243 C       5      r5     0.0349
   1198 H           -5.5964    -9.6509     1.0586 H       0      r0     0.0196
   1199 H           -4.7009    -7.4198    -0.2141 H       0      r0     0.0648
   1200 C           -4.6708    -7.3872     0.9366 C       0      r0    -0.0347
   1201 C           -3.8126    -7.0196    -2.3798 C       5      r5     0.2768
   1202 H           -3.3239   -10.7097    -0.6045 H       0      r0     0.0266
   1203 C           -3.3884    -7.6981     1.4383 C       0      r0     0.0010
   1204 H           -2.9510    -9.7449     1.0191 H       0      r0     0.0147
   1205 C           -2.6093    -9.9953     0.0015 C       0      r0    -0.0899
   1206 C           -2.1825    -7.6349     0.5438 C       5      r5    -0.0490
   1207 C           -1.9981    -8.6138    -0.3207 C       5      r5     0.2249
   1208 C           -1.0959    -6.6472     0.4404 C       5      r5    -0.0391
   1209 O           -0.7469    -8.5010    -1.2037 O       5      r5    -0.5028
   1210 C           -0.1530    -7.3269    -0.4317 C       5      r5     0.2310
   1211 C            0.8338    -6.4802    -0.5357 C       0      r0    -0.0647
   1212 H            0.9467    -9.0425     0.5371 H       0      r0     0.0478
   1213 C            1.7445    -8.3812     1.0856 C       0      r0    -0.0215
   1214 H            3.0084    -8.4653    -0.8418 H       0      r0     0.0311
   1215 C            3.0659    -8.4261     0.2065 C       0      r0    -0.0145
   1216 C            4.2764    -8.3489     0.9077 C       6      r6     0.0100
   1217 C            4.5393    -9.8725    -1.7728 C       0      r0    -0.0080
   1218 C            4.9533    -8.7545    -1.3295 C       0      r0    -0.0078
   1219 C            5.2856    -8.4386     0.0244 C       6      r6     0.0190
   1220 C            6.6554    -8.5840     0.3184 C       6      r6     0.0046
   1221 C            7.0226    -7.7648     1.5710 C       6      r6     0.0216
   1222 C            7.4853    -9.6030    -0.3312 C       0      r0    -0.0104
   1223 C            8.2637    -7.1739     2.0981 C       5      r5    -0.0039
   1224 H            8.8999    -9.9158     1.8464 H       0      r0     0.0163
   1225 C            9.1758    -6.4518     1.0186 C       0      r0     0.0183
   1226 C            9.8074    -7.4380     0.1954 C       0      r0    -0.0095
   1227 C           10.0677   -10.2715     1.9550 C       7      r7    -0.0103
   1228 C           10.7104    -6.8453    -0.9140 C       0      r0    -0.0068
   1229 H           11.3648    -7.4834     2.1203 H       0      r0     0.0193
   1230 H           10.8970    -9.6952    -1.5414 H       0      r0     0.0399
   1231 C           11.9999    -7.9693    -0.8376 C       0      r0    -0.0164
   1232 H           11.2667    -8.5837    -0.2523 H       0      r0     0.0254
   1233 C           13.3619    -7.4819    -0.2532 C       0      r0     0.0179
   1234 C           14.0539   -10.0320    -1.4398 C       0      r0     0.2620
   1235 C           13.9896    -8.5861    -0.7047 C       0      r0    -0.0529
   1236 H           15.0769    -8.8550    -0.6818 H       0      r0     0.0150
   1237 C          -14.9936    -3.0505     1.3049 C       0      r0    -0.0056
   1238 C          -14.1147    -3.3303    -1.1454 C       0      r0    -0.0029
   1239 C          -13.8589    -2.3925    -2.0583 C       0      r0    -0.0021
   1240 C          -12.9981    -5.4795    -1.1360 C       0      r0     0.0044
   1241 C          -12.7883    -3.9618    -0.9056 C       0      r0    -0.0050
   1242 C          -11.6496    -3.1159    -0.6919 C       0      r0    -0.0031
   1243 C          -11.0354    -2.7242     1.8379 C       7      r7     0.0182
   1244 C          -10.5554    -2.3198    -0.4930 C       0      r0    -0.0182
   1245 C           -9.8661    -3.5553     1.6038 C       7      r7    -0.0042
   1246 C           -9.3114    -3.0387     0.3990 C       7      r7     0.0015
   1247 C           -8.4052    -5.1880    -0.6935 C       6      r6     0.0110
   1248 C           -8.3064    -4.0212     0.2499 C       6      r6    -0.0088
   1249 C           -7.2306    -5.8469    -1.2961 C       6      r6    -0.0437
   1250 C           -6.9017    -3.9929     0.6953 C       6      r6     0.0017
   1251 C           -6.5095    -3.6190     2.0630 C       6      r6     0.0069
   1252 C           -5.9070    -5.5007    -0.9027 C       6      r6     0.2503
   1253 C           -5.9333    -5.0879     0.4942 C       6      r6    -0.0547
   1254 C           -5.2067    -6.0027     1.5258 C       6      r6     0.0203
   1255 O           -4.7082    -6.0345    -1.7264 O       0      r0    -0.5258
   1256 C           -2.5652    -3.8450     1.8029 C       6      r6    -0.0509
   1257 C           -2.3522    -3.3039     0.3973 C       6      r6     0.2184
   1258 C           -1.9962    -4.3842    -0.1451 C       5      r5    -0.0380
   1259 C           -1.6667    -5.4633     0.8783 C       5      r5     0.0260
   1260 C           -1.6717    -4.3335    -1.8665 C       0      r0     0.0002
   1261 C           -0.3412    -3.6677    -1.9332 C       0      r0     0.0286
   1262 C            0.6612    -4.0707    -0.8423 C       6      r6    -0.0089
   1263 C            1.1119    -3.2055     0.0681 C       6      r6     0.0028
   1264 C            1.5923    -5.2689    -0.8641 C       6      r6     0.0234
   1265 C            2.1683    -3.3865     1.1315 C       6      r6    -0.0096
   1266 C            3.1109    -4.9987    -0.3468 C       6      r6    -0.0622
   1267 C            3.0364    -4.4373     1.0247 C       6      r6     0.0358
   1268 C            4.0631    -4.7598     2.1275 C       6      r6    -0.0624
   1269 C            4.4013    -5.2684    -0.8186 C       6      r6     0.2163
   1270 C            5.3159    -5.1028     1.6058 C       6      r6     0.2162
   1271 O            5.6969    -5.2533     0.1076 O       6      r6    -0.4759
   1272 H            6.7828    -2.6928     0.6160 H       0      r0     0.0491
   1273 C           10.4389    -5.9238    -1.5752 C       0      r0     0.0069
   1274 H           11.8438    -2.4393    -0.0423 H       0      r0     0.0192
   1275 H           12.0509    -5.3052     0.6265 H       0      r0     0.0207
   1276 H           12.3342    -3.5226    -1.7321 H       0      r0     0.0225
   1277 C           12.3873    -2.6848    -1.1310 C       7      r7    -0.0380
   1278 C           12.9789    -5.6454     1.0143 C       0      r0    -0.0207
   1279 C           14.0055    -5.8821    -0.0191 C       0      r0     0.0005
   1280 C           13.8097    -2.3727    -0.7157 C       7      r7     0.0043
   1281 C           14.8092    -4.9515    -0.6694 C       0      r0     0.0008
   1282 C           14.8768    -3.3575    -0.3336 C       0      r0    -0.0061
   1283 C          -14.0723    -2.0183     1.9062 C       7      r7     0.0104
   1284 H          -13.3241    -0.1321     0.6527 H       0      r0     0.0325
   1285 C          -13.0657    -1.2003     0.9479 C       7      r7    -0.0421
   1286 H          -13.4168    -1.9373     0.2079 H       0      r0     0.0265
   1287 H          -12.5663     0.6126     2.7529 H       0      r0     0.0175
   1288 C          -11.5702    -1.2807     1.4550 C       7      r7    -0.0045
   1289 C          -11.2140     1.0732     0.7969 C       0      r0     0.0277
   1290 C          -10.6323    -0.2878     0.6956 C       0      r0    -0.0151
   1291 H          -10.3498    -1.6211    -1.3786 H       0      r0     0.0135
   1292 C           -9.9104     1.7855    -0.9021 C       7      r7    -0.0091
   1293 H           -9.5571     0.6573    -0.8007 H       0      r0     0.0178
   1294 C           -9.2486    -0.4845     1.1233 C       0      r0     0.0175
   1295 C           -7.8849    -0.2562     1.4658 C       0      r0    -0.0180
   1296 C           -6.7500     0.4628     0.6301 C       0      r0    -0.0057
   1297 C           -6.1016     1.5531     1.4774 C       5      r5    -0.0064
   1298 C           -5.9830     0.0651    -0.2453 C       0      r0    -0.0118
   1299 C           -5.3740    -0.7105    -1.2748 C       0      r0    -0.0030
   1300 H           -5.4170    -1.7992    -0.9531 H       0      r0     0.0376
   1301 H           -3.7435    -0.0256     0.5506 H       0      r0    -0.0084
   1302 C           -3.7514     1.8507    -0.8865 C       0      r0    -0.0051
   1303 C           -3.8150    -1.5111     2.0143 C       6      r6    -0.0667
   1304 C           -3.4806     1.0916    -1.6156 C       0      r0     0.0117
   1305 C           -3.3438    -1.1178     0.7134 C       6      r6     0.2265
   1306 O           -2.5046    -1.8667    -0.2776 O       6      r6    -0.4971
   1307 H           -1.4053     1.2082     1.4527 H       0      r0     0.0457
   1308 H           -0.2684    -1.5841    -0.3719 H       0      r0     0.0951
   1309 C            0.2030    -2.1016     0.3985 C       5      r5    -0.0575
   1310 C            0.9080    -1.5004     1.4881 C       5      r5     0.2116
   1311 C            3.9529     2.0054    -1.9499 C       5      r5    -0.0022
   1312 H            3.6886     1.3043     0.1392 H       0      r0     0.0289
   1313 C            4.3227     1.0668    -0.8892 C       7      r7    -0.0156
   1314 C            5.0871    -0.0590    -1.2832 C       7      r7    -0.0008
   1315 H            5.3979    -1.4852     0.8683 H       0      r0     0.0291
   1316 C            5.7036     1.9918     1.2193 C       0      r0     0.0008
   1317 C            5.8001    -1.0046    -1.7464 C       7      r7    -0.0011
   1318 C            6.4999    -1.5191     0.7296 C       0      r0    -0.0384
   1319 C            6.7522    -1.1997    -0.8167 C       0      r0    -0.0143
   1320 C            7.0507     1.6550     0.3528 C       0      r0    -0.0216
   1321 H            6.7569     0.9594    -0.4182 H       0      r0     0.0145
   1322 C            7.2599    -0.7398     1.9083 C       0      r0     0.0130
   1323 H            7.8516    -0.9143    -0.5561 H       0      r0     0.0257
   1324 C            8.0164     1.4106     1.0385 C       0      r0     0.0083
   1325 C            8.7156    -0.8403     1.8995 C       5      r5    -0.0206
   1326 H            9.1918    -1.4402     1.1559 H       0      r0     0.0202
   1327 C            9.2957     0.7540     1.6817 C       5      r5    -0.0192
   1328 H           10.1922     0.9231     1.1623 H       0      r0     0.0206
   1329 H           11.6876     1.7369     0.1180 H       0      r0     0.0199
   1330 C           12.0141    -1.2837    -1.9075 C       7      r7     0.0049
   1331 H           13.3713     0.1069    -0.1949 H       0      r0     0.0184
   1332 C           14.1996    -0.8201    -0.6480 C       7      r7    -0.0355
   1333 H           14.9302    -0.3470    -0.2972 H       0      r0     0.0272
   1334 H          -15.1292     4.7956    -0.7508 H       0      r0     0.0602
   1335 C          -14.9870     5.5188    -1.5887 C       0      r0    -0.0174
   1336 O          -13.0278     3.5977     0.4232 O       0      r0    -0.4677
   1337 H          -11.6240     5.3051    -1.2904 H       0      r0     0.0465
   1338 C          -11.7875     3.5558     0.0449 C       7      r7     0.3182
   1339 C          -10.9959     4.7961    -0.6307 C       7      r7    -0.0952
   1340 C          -10.9663     2.3427     0.1471 C       7      r7    -0.0541
   1341 H          -10.7117     5.3930     0.1413 H       0      r0     0.0367
   1342 C           -9.9282     4.0587    -1.5536 C       7      r7     0.0095
   1343 C           -8.9425     4.7724    -1.9548 C       0      r0    -0.0041
   1344 H           -8.7112     1.9349     1.9773 H       0      r0     0.0214
   1345 C           -8.1467     3.0796     2.0147 C       0      r0    -0.0133
   1346 H           -6.7522     5.7053    -1.7789 H       0      r0     0.0166
   1347 C           -6.6506     5.4789     0.1723 C       0      r0     0.0005
   1348 C           -6.6951     2.7301     2.3484 C       5      r5    -0.0025
   1349 C           -6.1060     2.9199    -1.7745 C       0      r0    -0.0064
   1350 C           -5.5119     4.8534     0.1571 C       5      r5    -0.0079
   1351 C           -5.4795     3.5444    -0.8009 C       5      r5    -0.0037
   1352 C           -4.2568     2.7876    -0.1545 C       5      r5     0.0006
   1353 C           -4.3588     4.3832     1.1844 C       5      r5    -0.0006
   1354 C           -3.5702     3.3215     0.7628 C       5      r5    -0.0056
   1355 C           -3.5903     5.6659     1.7335 C       0      r0    -0.0041
   1356 C           -2.0590     5.4994     1.8495 C       0      r0    -0.0037
   1357 C           -1.2387     3.7054    -1.3164 C       5      r5    -0.0133
   1358 H           -0.6145     4.3537    -0.5937 H       0      r0     0.0149
   1359 C           -0.8093     5.6252     1.9587 C       0      r0    -0.0255
   1360 C           -0.2871     2.9945     1.9904 C       0      r0     0.0216
   1361 C           -0.5711     2.4464    -1.5869 C       5      r5    -0.0466
   1362 C            0.1461     4.1885     2.0833 C       0      r0    -0.0008
   1363 H            0.4151     1.3140     0.2055 H       0      r0     0.0751
   1364 C            0.8222     2.1102    -0.6781 C       0      r0    -0.0149
   1365 C            1.4963     3.6847     1.7139 C       0      r0    -0.0168
   1366 H            1.4444     2.7352     1.1536 H       0      r0     0.0399
   1367 C            1.8767     2.1589    -1.3900 C       0      r0     0.0060
   1368 C            2.7691     4.2774     2.1670 C       6      r6     0.0079
   1369 C            3.9957     3.4334     1.9757 C       6      r6     0.0028
   1370 C            5.0276     3.3854     1.0589 C       5      r5    -0.0090
   1371 H            5.1766     5.9118    -0.2684 H       0      r0     0.0186
   1372 C            6.0076     4.3886     1.2516 C       5      r5     0.0045
   1373 C            6.2308     5.4904     0.0365 C       0      r0    -0.0374
   1374 C            7.2888     4.0940    -1.8493 C       5      r5    -0.0774
   1375 C            7.3305     4.6690    -0.5446 C       5      r5     0.0082
   1376 C            8.5048     3.2275    -1.7588 C       5      r5     0.2740
   1377 C            8.7148     4.4628    -0.0792 C       5      r5    -0.0061
   1378 C            9.2759     5.0116     1.2372 C       6      r6    -0.0007
   1379 C            9.4056     3.4704    -0.6837 C       5      r5    -0.0716
   1380 H           10.1751     2.9899    -0.4468 H       0      r0     0.0499
   1381 C           12.2039     2.4618     0.8093 C       5      r5    -0.0245
   1382 C           12.7984     4.6526     1.0078 C       5      r5    -0.0142
   1383 C           12.8703     3.5573     0.1110 C       5      r5     0.0131
   1384 H           12.9234     5.8432     0.6196 H       0      r0     0.0276
   1385 C           13.7729     3.0756    -1.0625 C       0      r0    -0.0273
   1386 H           14.5645     2.5308    -0.7603 H       0      r0     0.0479
   1387 H          -12.2763     7.0104    -1.7315 H       0      r0     0.0265
   1388 H          -11.3158     8.2871     0.0010 H       0      r0     0.0215
   1389 C          -10.5106     9.9904     1.4730 C       0      r0    -0.0239
   1390 C          -10.2716     8.4317    -0.4381 C       6      r6    -0.0354
   1391 C          -10.0685     8.6535    -2.0009 C       6      r6    -0.0044
   1392 H           -9.5359     7.5941    -0.0997 H       0      r0     0.0178
   1393 C           -9.6963     9.7635     0.3343 C       6      r6     0.0115
   1394 H           -8.7417     6.1634     0.6063 H       0      r0     0.0204
   1395 H           -8.4548     7.4595    -2.0119 H       0      r0     0.0191
   1396 C           -7.8133     6.3776     0.3078 C       0      r0    -0.0236
   1397 C           -7.1673     7.6861     0.9183 C       0      r0    -0.0087
   1398 H           -5.1349     8.9745    -1.0125 H       0      r0     0.0158
   1399 H           -5.2728     7.1217     1.4887 H       0      r0     0.0229
   1400 C           -4.2060     9.3786    -1.7034 C       6      r6    -0.0273
   1401 H           -3.4727     9.6481     1.9222 H       0      r0     0.0171
   1402 H           -3.2733     6.1724    -0.9478 H       0      r0     0.0172
   1403 H           -3.0389     9.0577    -1.2854 H       0      r0     0.0102
   1404 C           -2.9594     6.3169    -2.0261 C       5      r5    -0.0358
   1405 H           -2.2009     7.1387    -1.9700 H       0      r0     0.0136
   1406 H           -0.5169     6.7084     2.2084 H       0      r0     0.0126
   1407 H            1.3272     9.9945     1.7990 H       0      r0     0.0158
   1408 H            1.5575     9.7496    -1.6719 H       0      r0     0.0249
   1409 H            3.5834     9.7936     0.7113 H       0      r0     0.0158
   1410 C            4.1126     6.4149    -1.5484 C       5      r5    -0.0302
   1411 H            3.6677     6.4979    -0.5224 H       0      r0     0.0114
   1412 C            4.7343     8.8539    -2.1765 C       6      r6    -0.0743
   1413 C            5.6304    10.2110     0.0002 C       6      r6    -0.0042
   1414 C            5.7470     9.3996    -1.3333 C       6      r6     0.0091
   1415 H            6.9007     6.3493     0.2592 H       0      r0     0.0187
   1416 C            6.9767     8.8152    -1.4311 C       6      r6    -0.0162
   1417 C            7.7219     8.7568    -0.1013 C       6      r6     0.0260
   1418 C            7.6409     9.6362     1.0506 C       6      r6    -0.0056
   1419 H            8.3406     9.5977     2.1016 H       0      r0     0.0276
   1420 C            8.5712     7.4573     0.0144 C       0      r0     0.0290
   1421 C            9.2957     7.4772    -1.5781 C       0      r0    -0.0654
   1422 C            9.3414     6.4656     0.6777 C       6      r6     0.0003
   1423 C           10.6361     6.8226     1.5464 C       6      r6     0.0172
   1424 O           10.7447     9.5883    -1.0532 O       0      r0    -0.6657
   1425 H           11.4330    10.0020    -0.7545 H       0      r0     0.3211
   1426 C           12.9120     9.7216     1.7023 C       6      r6    -0.0202
   1427 C           13.1441     9.0980     0.6803 C       6      r6     0.0198
   1428 C           13.8049     9.1487    -0.4832 C       6      r6     0.0018
   1429 C           14.3087     7.9336    -1.5184 C       6      r6     0.0056
   1430 C           14.8619     6.6346    -1.4068 C       0      r0     0.0018
   1431 C          -14.7391    11.4161     1.4921 C       7      r7    -0.0005
   1432 C          -14.8654    12.3506    -1.4981 C       7      r7    -0.0087
   1433 C          -13.9402    12.7220    -0.4456 C       7      r7     0.0033
   1434 C          -13.7581    11.9720     0.8081 C       7      r7    -0.0220
   1435 H          -12.9217    14.0169    -1.6871 H       0      r0     0.0194
   1436 C          -12.7006    13.3291    -0.9563 C       0      r0    -0.0247
   1437 H          -12.6398    11.8462     0.8942 H       0      r0     0.0239
   1438 C          -11.5388    13.5237    -0.1715 C       0      r0     0.0002
   1439 H          -10.9010   -13.7787    -2.0928 H       0      r0     0.0170
   1440 C          -10.4886    13.6475     1.9120 C       5      r5     0.0012
   1441 H          -10.2637    10.8681     2.0411 H       0      r0     0.0235
   1442 C          -10.4645    13.8615     0.3855 C       0      r0    -0.0189
   1443 C           -8.4994    10.3090    -0.1119 C       6      r6    -0.0290
   1444 C           -8.4883    10.5031    -1.6004 C       6      r6     0.0013
   1445 H           -7.9946    11.8376     1.6724 H       0      r0     0.0176
   1446 H           -7.7249    10.7781     0.2592 H       0      r0     0.0206
   1447 C           -6.8589    13.4313     1.6745 C       6      r6     0.0004
   1448 C           -6.4674    12.4113    -1.8567 C       0      r0    -0.0167
   1449 C           -6.0312    12.8833    -0.4760 C       6      r6    -0.0001
   1450 H           -5.3822    11.0403     0.8708 H       0      r0     0.0170
   1451 C           -5.4221    13.1970     1.9634 C       6      r6     0.0020
   1452 C           -5.3029    12.1485     0.6501 C       6      r6    -0.0351
   1453 H           -4.1288    12.1486     0.5682 H       0      r0     0.0249
   1454 C           -3.9912    10.8451    -2.0322 C       6      r6    -0.0014
   1455 H           -3.8487    13.8135     1.3009 H       0      r0     0.0325
   1456 C           -2.9017    11.8493    -1.3894 C       0      r0     0.0066
   1457 C           -2.7717    13.3724    -1.5022 C       0      r0    -0.0277
   1458 H           -2.8124    10.1933    -0.0420 H       0      r0     0.0110
   1459 C           -2.1371    10.9714    -0.3611 C       0      r0    -0.0158
   1460 O           -0.9950    13.7920     0.6062 O       5      r5    -0.4592
   1461 C           -0.7220    11.0791     0.2097 C       0      r0     0.0460
   1462 C           -0.7318    10.9574     1.8664 C       6      r6     0.0223
   1463 C            0.3723    10.8727    -0.7123 C       0      r0    -0.0048
   1464 C            0.5289    10.6396     2.3784 C       6      r6    -0.0301
   1465 C            1.0701    12.2585    -2.1572 C       0      r0     0.0199
   1466 C            1.2556    10.8460    -1.5339 C       0      r0    -0.0116
   1467 C            2.0983    12.9807    -1.9272 C       0      r0    -0.0009
   1468 C            2.7882    12.8079     1.3416 C       0      r0     0.0471
   1469 C            2.9924    11.4492     2.0505 C       0      r0     0.0027
   1470 C            3.1406    13.8210    -2.0928 C       6      r6    -0.0034
   1471 C            3.1751    14.1244     0.7846 C       0      r0     0.0126
   1472 H            3.9604    11.5441    -0.5109 H       0      r0     0.0207
   1473 C            4.2884    10.6579     0.5247 C       5      r5    -0.0302
   1474 C            4.6489    13.3360    -2.0042 C       6      r6    -0.0056
   1475 C            4.3896    11.6349     1.8575 C       5      r5     0.0013
   1476 C            5.1221    12.0145    -2.2324 C       5      r5     0.0109
   1477 C            5.7139    14.0600    -1.4352 C       6      r6    -0.0030
   1478 C            6.4248    10.3654     1.1884 C       6      r6    -0.0029
   1479 C            7.0174    13.5515    -1.9447 C       5      r5    -0.0344
   1480 H            7.5861    13.6389    -0.9602 H       0      r0     0.0241
   1481 C           11.6146    13.4245    -0.5048 C       7      r7    -0.0023
   1482 C           11.8559    12.1874    -1.7022 C       0      r0    -0.0180
   1483 H           12.6793    11.5751    -1.8701 H       0      r0     0.0166
   1484 C           12.1899    13.5413     0.8352 C       7      r7    -0.0021
   1485 C           12.3123    12.3931     1.8476 C       0      r0     0.0054
   1486 C           13.1060    11.3946     1.4452 C       6      r6    -0.0061
   1487 C           14.2162    11.5810     0.4470 C       6      r6    -0.0171
   1488 C           14.3048    10.3844    -0.7061 C       6      r6    -0.0084
   1489 H           13.8585    12.4104    -0.2345 H       0      r0     0.0192
   1490 C           14.9236    10.9633    -1.6468 C       6      r6    -0.0022
   1491 C          -14.6369   -12.9447     3.8940 C       7      r7    -0.0076
   1492 C          -13.8934   -14.0719     3.3524 C       6      r6     0.0014
   1493 C          -13.8891   -11.7129     3.8202 C       5      r5     0.0039
   1494 C          -13.8665   -11.0696     2.5352 C       5      r5    -0.0062
   1495 H          -13.6639   -10.8899     5.7365 H       0      r0     0.0274
   1496 H          -12.1130   -12.1321     5.4346 H       0      r0     0.0184
   1497 C          -12.9398   -11.3852     5.0180 C       5      r5    -0.0328
   1498 C          -12.8603   -14.0037     2.3374 C       6      r6    -0.0197
   1499 C          -12.5334   -10.2363     2.9064 C       5      r5    -0.0023
   1500 C          -12.1726   -10.4456     4.1551 C       5      r5    -0.0175
   1501 H          -10.4268   -12.1481     6.0363 H       0      r0     0.0185
   1502 C           -9.3409   -12.3197     6.2685 C       0      r0    -0.0161
   1503 C           -8.2913   -10.6179     4.7844 C       0      r0    -0.0352
   1504 H           -8.2699   -12.3764     2.4393 H       0      r0     0.0188
   1505 H           -8.2419   -11.0413     3.7856 H       0      r0     0.0180
   1506 C           -8.1183   -11.8507     5.8190 C       0      r0     0.0081
   1507 C           -6.9178   -12.5391     5.8998 C       6      r6    -0.0060
   1508 C           -6.9177   -13.8445     6.4730 C       6      r6     0.0056
   1509 C           -5.3319   -12.3057     5.7749 C       6      r6    -0.0026
   1510 C           -4.6362   -13.0861     2.4166 C       0      r0    -0.0132
   1511 C           -4.4811   -12.4281     3.5469 C       0      r0    -0.0097
   1512 C           -4.2022   -12.1250     4.9341 C       0      r0    -0.0047
   1513 C           -2.8053   -12.5965     5.5062 C       0      r0    -0.0140
   1514 C           -2.8116   -13.8956     5.7852 C       0      r0    -0.0118
   1515 H           -2.0773   -11.9364     6.0566 H       0      r0     0.0189
   1516 C           -0.4476   -13.0200     2.4156 C       0      r0    -0.0408
   1517 C           -0.3559   -10.4344     2.7399 C       0      r0    -0.0171
   1518 C           -0.3670   -11.7784     2.6101 C       0      r0     0.0099
   1519 C            0.4349   -13.0781     6.0099 C       0      r0     0.0054
   1520 H            0.3193   -13.8708     2.9396 H       0      r0     0.1099
   1521 C            1.1649   -10.5917     5.5104 C       0      r0    -0.0245
   1522 C            1.2751   -11.9770     5.4382 C       0      r0    -0.0147
   1523 H            1.8845   -12.2368     4.4726 H       0      r0     0.0610
   1524 C            3.2272   -10.5937     4.2154 C       0      r0    -0.0014
   1525 C            3.6727   -11.5720     2.8482 C       0      r0    -0.0414
   1526 C            4.0935   -12.9518     2.7260 C       0      r0     0.0631
   1527 C            4.4547   -13.3245     4.0590 C       0      r0    -0.0958
   1528 H            4.6956   -11.3204     2.7208 H       0      r0     0.0145
   1529 H            5.1941   -12.9460     4.7105 H       0      r0     0.0320
   1530 C            7.0249   -13.2594     3.9047 C       6      r6     0.0041
   1531 C            6.8582   -13.8654     2.5614 C       6      r6    -0.0045
   1532 H            6.4741   -11.1030     3.7842 H       0      r0     0.0147
   1533 C            7.2497   -11.7922     4.0382 C       6      r6    -0.0269
   1534 C            7.4475   -13.8759     5.1888 C       6      r6    -0.0103
   1535 C            8.2117   -13.1382     6.2802 C       6      r6     0.0135
   1536 C            8.3010   -11.1899     4.7074 C       6      r6     0.0230
   1537 C            9.0966   -12.2072     5.6764 C       6      r6     0.0178
   1538 C           10.4558   -12.8020     5.3604 C       3      r3     0.1078
   1539 O           11.5506   -13.2480     4.1371 O       3      r3    -0.4460
   1540 C           11.5487   -13.5496     5.5756 C       3      r3     0.2124
   1541 C           12.4102   -10.4069     2.5448 C       7      r7     0.0188
   1542 C           13.6785   -12.7768     3.1102 C       5      r5     0.0719
   1543 C           13.6466   -13.9716     2.3606 C       5      r5    -0.0182
   1544 C           14.1627   -12.8496     5.8026 C       5      r5     0.2730
   1545 C           14.2503   -12.3815     4.3434 C       7      r7    -0.0527
   1546 H           13.9505   -11.3585     4.1686 H       0      r0     0.0503
   1547 C           14.9378   -13.8421     5.9517 C       6      r6    -0.0743
   1548 C          -14.9089    -8.3969     5.3107 C       7      r7    -0.0231
   1549 H          -14.6801    -9.4166     5.4838 H       0      r0     0.0296
   1550 C          -13.6546    -7.6099     4.9349 C       5      r5     0.0000
   1551 H          -13.2987    -6.7071     2.1662 H       0      r0     0.0202
   1552 C          -12.4398    -7.9355     5.4589 C       5      r5    -0.0557
   1553 H          -12.3349    -8.9600     5.8761 H       0      r0     0.0387
   1554 C          -11.5096    -6.8049     5.3991 C       6      r6     0.2372
   1555 H          -11.1761   -10.1222     4.4600 H       0      r0     0.0204
   1556 C          -10.7415    -8.4376     2.8500 C       7      r7    -0.0242
   1557 C          -10.6129    -7.0830     2.3546 C       7      r7     0.0010
   1558 H          -10.2427    -8.6442     3.8720 H       0      r0     0.0372
   1559 O          -10.1762    -6.9747     6.1172 O       6      r6    -0.4937
   1560 C           -9.4362    -6.2140     2.8508 C       0      r0     0.0053
   1561 H           -9.1339    -9.8539     4.8129 H       0      r0     0.0340
   1562 H           -7.5617    -7.9832     3.9438 H       0      r0     0.0287
   1563 C           -6.9592    -9.8182     5.0895 C       6      r6     0.0133
   1564 C           -6.7687    -8.5419     4.4761 C       6      r6    -0.0179
   1565 C           -6.2758    -9.8820     6.3350 C       6      r6    -0.0164
   1566 C           -5.6666    -6.2704     4.1950 C       0      r0    -0.0024
   1567 C           -5.7078    -7.6827     4.7016 C       6      r6     0.0046
   1568 C           -4.5676    -8.1328     5.5711 C       6      r6    -0.0024
   1569 C           -3.2559    -7.8232     5.7386 C       0      r0    -0.0074
   1570 C           -1.8703    -7.4172     6.0023 C       0      r0    -0.0081
   1571 H           -1.4096   -10.2245     2.4628 H       0      r0     0.0164
   1572 C           -1.0568    -6.6171     4.9796 C       0      r0    -0.0030
   1573 H            0.2329   -10.4822     5.9302 H       0      r0     0.0181
   1574 C            0.9354    -9.6017     3.1999 C       0      r0     0.0003
   1575 H            1.1868    -7.9629     5.3547 H       0      r0     0.0226
   1576 C            1.3099    -6.0773     4.5129 C       0      r0     0.0022
   1577 C            1.5193    -8.8571     2.2381 C       0      r0    -0.0057
   1578 C            1.8365    -7.2081     5.1370 C       0      r0    -0.0187
   1579 C            1.9199   -10.0039     4.3917 C       0      r0    -0.0043
   1580 C            3.2956    -7.6105     5.0392 C       0      r0    -0.0011
   1581 C            3.8539    -8.9385     5.7769 C       0      r0    -0.0223
   1582 H            4.0595    -7.0424     2.2335 H       0      r0     0.0304
   1583 H            3.8353    -8.6717     2.9414 H       0      r0     0.0238
   1584 C            4.0633    -6.4116     5.3950 C       0      r0    -0.0084
   1585 C            4.3679   -10.0739     5.0131 C       0      r0    -0.0212
   1586 C            4.4689    -8.0345     2.3885 C       6      r6    -0.0420
   1587 H            5.4104    -9.8257     4.5873 H       0      r0     0.0121
   1588 C            5.9540    -7.6810     2.5910 C       6      r6     0.0027
   1589 C            6.7912    -7.6730     3.7481 C       5      r5    -0.0352
   1590 H            5.9491    -7.7682     4.3771 H       0      r0     0.0198
   1591 C            7.9762    -6.8882     3.4499 C       5      r5     0.0031
   1592 H            7.9297    -8.6599     6.0379 H       0      r0     0.0159
   1593 H            8.2564    -9.0631     4.0870 H       0      r0     0.0187
   1594 C            8.5482    -9.8250     4.6539 C       0      r0    -0.0200
   1595 C            9.0556    -8.8485     5.7001 C       0      r0     0.0122
   1596 C            9.0805    -6.5635     4.3120 C       0      r0    -0.0103
   1597 C           10.1790    -8.1363     6.1374 C       0      r0     0.0041
   1598 C           10.1138    -7.4580     3.8586 C       0      r0    -0.0049
   1599 C           11.2453    -9.6699     2.4823 C       7      r7     0.0075
   1600 C           11.3335    -7.9284     3.1353 C       0      r0    -0.0204
   1601 C           11.6297    -8.2641     5.9208 C       0      r0     0.0224
   1602 C           12.7756    -8.6745     5.5399 C       0      r0    -0.0120
   1603 C           12.7573    -7.0753     3.3393 C       0      r0    -0.0082
   1604 H           12.7958    -9.4320     5.0253 H       0      r0     0.0476
   1605 C           13.0043    -6.2713     2.1940 C       0      r0    -0.0045
   1606 C           13.9444    -6.8654     4.3637 C       7      r7    -0.0058
   1607 C           14.1136    -7.9307     5.3662 C       7      r7     0.0040
   1608 C          -14.4473    -4.9914     4.9753 C       7      r7     0.0002
   1609 C          -14.4556    -3.7630     5.9300 C       7      r7    -0.0073
   1610 H          -14.3182    -2.1601     4.1285 H       0      r0     0.0211
   1611 C          -13.5428    -2.2604     3.2155 C       7      r7    -0.0288
   1612 C          -13.5161    -6.0264     4.7708 C       5      r5    -0.0087
   1613 C          -13.3517    -3.0283     6.3470 C       5      r5    -0.0004
   1614 H          -13.0555    -4.5211     3.4681 H       0      r0     0.0229
   1615 C          -12.7552    -3.4031     3.7246 C       5      r5     0.0090
   1616 C          -12.1441    -3.2791     5.2527 C       5      r5    -0.0124
   1617 C          -12.1582    -5.5117     5.1852 C       6      r6    -0.0520
   1618 C          -11.6091    -4.4202     5.8319 C       6      r6     0.0354
   1619 C          -11.3252    -2.9274     3.4854 C       5      r5    -0.0745
   1620 C          -11.2635    -2.3938     5.7425 C       5      r5    -0.0207
   1621 C          -10.5565    -2.1712     4.2582 C       5      r5     0.2620
   1622 C          -10.2049    -4.4455     6.2300 C       6      r6    -0.0364
   1623 C           -9.2934    -5.6603     6.0977 C       6      r6     0.2079
   1624 H           -8.8423    -5.4744     5.1384 H       0      r0     0.0002
   1625 C           -8.7589    -4.2172     2.4642 C       7      r7     0.0059
   1626 C           -8.6747    -5.3204     3.1002 C       0      r0    -0.0058
   1627 H           -7.9601    -2.5066     3.2318 H       0      r0     0.0566
   1628 C           -7.5302    -3.4404     3.2003 C       7      r7    -0.0432
   1629 H           -7.1639    -3.9325     4.2096 H       0      r0     0.0237
   1630 C           -5.9161    -5.4320     5.3842 C       0      r0    -0.0218
   1631 H           -5.6755    -3.4259     5.7550 H       0      r0     0.0152
   1632 C           -5.4937    -5.6161     2.8904 C       6      r6    -0.0104
   1633 C           -5.3824    -4.0503     2.8671 C       6      r6     0.0006
   1634 H           -4.9407    -5.0635     5.2984 H       0      r0     0.0174
   1635 C           -4.2481    -3.3651     3.5422 C       0      r0    -0.0253
   1636 H           -3.7887    -3.9865     4.3757 H       0      r0     0.0146
   1637 C           -3.2063    -2.8094     2.5869 C       6      r6     0.0239
   1638 H           -1.8547    -5.9704     2.9590 H       0      r0     0.0205
   1639 C           -2.0524    -5.1737     2.1727 C       5      r5    -0.0154
   1640 C           -0.9629    -2.1914     5.9979 C       0      r0    -0.0108
   1641 C           -0.3862    -6.0120     4.2387 C       0      r0    -0.0305
   1642 H           -0.8727    -5.1612     4.0227 H       0      r0     0.0184
   1643 H            0.1373    -2.5409     5.8355 H       0      r0     0.0176
   1644 C            1.4106    -2.5544     2.1904 C       5      r5    -0.0477
   1645 H            1.2630    -3.0557     4.3331 H       0      r0     0.0136
   1646 C            2.0297    -2.6002     3.8021 C       7      r7    -0.0149
   1647 C            2.4457    -5.3373     4.0094 C       0      r0    -0.0107
   1648 C            3.3499    -4.4849     3.4612 C       7      r7     0.0141
   1649 C            3.7439    -2.9704     3.8732 C       7      r7    -0.0176
   1650 C            4.2613    -5.3451     6.0542 C       0      r0     0.0086
   1651 H            4.3005    -2.0538     3.7248 H       0      r0     0.0221
   1652 C            4.6104    -4.0090     6.1772 C       0      r0    -0.0074
   1653 C            4.9766    -3.4098     4.6644 C       0      r0    -0.0054
   1654 H            6.0846    -5.3690     2.3354 H       0      r0     0.0010
   1655 C            6.2601    -2.8590     4.5119 C       0      r0    -0.0079
   1656 C            7.3457    -2.2047     4.3222 C       0      r0    -0.0038
   1657 H            9.4656    -4.7026     3.2686 H       0      r0     0.0238
   1658 C            9.7991    -5.1307     4.1774 C       0      r0    -0.0240
   1659 H           10.5079    -2.2442     3.3099 H       0      r0     0.0218
   1660 C           10.6961    -4.4838     4.9193 C       0      r0    -0.0004
   1661 C           11.5548    -3.9580     5.8938 C       0      r0    -0.0177
   1662 C           11.7238    -2.0618     4.5977 C       0      r0     0.0033
   1663 C           12.0964    -2.5808     5.8742 C       0      r0     0.0003
   1664 C           14.6101    -4.8401     3.0959 C       0      r0    -0.0048
   1665 C           14.6271    -5.4880     4.1755 C       7      r7    -0.0040
   1666 C           14.8960    -3.9811     2.3122 C       0      r0    -0.0026
   1667 C          -14.8718    -0.0633     2.6818 C       0      r0    -0.0040
   1668 C          -14.8219     1.0790     3.1887 C       0      r0     0.0062
   1669 C          -14.5612     2.0292     3.9540 C       0      r0     0.0085
   1670 H          -13.0405    -1.2153     3.3664 H       0      r0     0.0238
   1671 C          -12.1022     1.3339     2.1316 C       0      r0     0.0094
   1672 H          -11.5869    -0.4685     2.3947 H       0      r0     0.0401
   1673 C           -9.7278     0.5100     6.4479 C       6      r6    -0.0637
   1674 O           -9.7300    -0.9229     4.2365 O       7      r7    -0.5386
   1675 C           -9.2566     0.1774     5.1818 C       6      r6     0.2566
   1676 H           -8.2433     0.4588     2.2795 H       0      r0     0.0405
   1677 C           -7.8632     0.6253     4.8941 C       6      r6    -0.0378
   1678 C           -6.7665     0.1374     4.3181 C       0      r0     0.0216
   1679 C           -6.5191     1.9478     6.4176 C       5      r5    -0.0110
   1680 H           -6.0016    -1.7471     4.5841 H       0      r0     0.0210
   1681 C           -5.8883    -0.8033     3.9826 C       0      r0    -0.0243
   1682 H           -5.5081    -1.1662     1.7162 H       0      r0     0.0204
   1683 H           -5.7943     1.0715     6.3888 H       0      r0     0.0180
   1684 C           -5.0865    -0.5507     2.6034 C       0      r0    -0.0074
   1685 C           -5.1830     0.9173     2.3332 C       5      r5    -0.0064
   1686 H           -4.8306     0.0522     5.4900 H       0      r0     0.0196
   1687 C           -4.6822     2.0162     3.1995 C       5      r5     0.0000
   1688 C           -4.0891    -0.6617     5.7780 C       0      r0    -0.0182
   1689 C           -3.5664     1.8650     4.1012 C       0      r0    -0.0067
   1690 C           -2.6454     0.6113     4.2855 C       6      r6     0.0234
   1691 C           -2.8180    -0.6191     5.0856 C       6      r6     0.0108
   1692 C           -1.5982     0.8385     3.3552 C       6      r6    -0.0380
   1693 C           -1.7202    -1.5360     4.9706 C       6      r6     0.0160
   1694 C           -1.3252     2.0019     2.2096 C       0      r0     0.0024
   1695 C           -0.5355    -1.1062     3.9922 C       6      r6    -0.0730
   1696 C           -0.4528    -0.0898     3.1019 C       6      r6     0.2444
   1697 H            0.1120    -1.9498     4.0126 H       0      r0     0.0328
   1698 O            0.6574     0.0146     2.0336 O       0      r0    -0.4906
   1699 H            0.9362     0.0914     5.8309 H       0      r0     0.0809
   1700 C            1.7377    -0.5384     5.6252 C       0      r0    -0.0340
   1701 C            1.8652    -1.1810     4.2795 C       0      r0     0.0382
   1702 C            2.7883     0.0996     6.2772 C       5      r5     0.0154
   1703 C            4.0647    -0.4832     5.9146 C       5      r5    -0.0262
   1704 H            4.2024    -1.2906     5.2374 H       0      r0     0.0213
   1705 C            5.4859     0.9587     2.2575 C       0      r0     0.0032
   1706 C            6.1343     1.5280     5.7853 C       6      r6    -0.0049
   1707 C            6.5838    -0.0098     2.7439 C       0      r0    -0.0269
   1708 H            7.0305     0.2147     3.6000 H       0      r0     0.0238
   1709 H            7.9313     0.6228     5.4537 H       0      r0     0.0209
   1710 C            7.6091     1.3768     6.0368 C       6      r6    -0.0144
   1711 C            8.2986    -1.4971     4.0450 C       0      r0    -0.0091
   1712 C            9.0631    -0.6847     3.4723 C       5      r5    -0.0018
   1713 C            9.2405     0.6530     3.9743 C       6      r6     0.0040
   1714 H            9.4566     0.2280     6.1926 H       0      r0     0.0214
   1715 C            9.8472     1.4182     2.9829 C       6      r6    -0.0073
   1716 C            9.8901     0.4115     5.2044 C       6      r6    -0.0370
   1717 H           10.9687     0.3798     5.2147 H       0      r0     0.0246
   1718 C           11.5257    -1.4945     3.5845 C       0      r0    -0.0400
   1719 H           11.9924    -0.6257     3.0826 H       0      r0     0.0191
   1720 H           14.0798     0.3576     5.3409 H       0      r0     0.0211
   1721 H           14.0647    -1.5715     2.9090 H       0      r0     0.0190
   1722 C           14.3276     0.2270     6.3124 C       0      r0    -0.0217
   1723 C           15.0745    -1.3537     2.5527 C       0      r0    -0.0249
   1724 C          -13.7177     2.9134     4.6290 C       5      r5     0.0077
   1725 C          -13.8477     3.4372     5.8994 C       5      r5    -0.0014
   1726 C          -12.3592     3.7447     6.3629 C       5      r5     0.0034
   1727 C          -12.3259     2.9967     3.9819 C       5      r5     0.0097
   1728 C          -12.0479     2.2470     3.0712 C       0      r0     0.0276
   1729 C          -11.6008     3.6821     5.1916 C       5      r5    -0.0006
   1730 C          -10.2439     3.7889     5.4216 C       0      r0     0.0053
   1731 C           -9.7858     5.8238     3.9303 C       0      r0    -0.0186
   1732 C           -9.9551     5.1887     6.1171 C       0      r0    -0.0219
   1733 C           -9.2343     2.6246     5.6392 C       6      r6    -0.0077
   1734 C           -9.0865     4.9232     3.3748 C       0      r0     0.0019
   1735 C           -8.5828     4.1301     2.6716 C       0      r0     0.0009
   1736 C           -7.8721     2.1772     5.4357 C       6      r6    -0.0178
   1737 H           -7.2180     2.5515     4.6332 H       0      r0     0.0254
   1738 C           -5.7755     3.3855     6.0325 C       5      r5    -0.0047
   1739 C           -5.7524     3.8283     4.6686 C       7      r7    -0.0072
   1740 C           -5.8616     5.6857     3.0125 C       6      r6     0.0055
   1741 C           -5.7217     2.8791     3.4407 C       5      r5    -0.0065
   1742 C           -5.3222     5.1548     4.2190 C       6      r6    -0.0018
   1743 C           -4.6804     6.1173     5.3090 C       6      r6    -0.0018
   1744 H           -3.4034     3.0614     6.4407 H       0      r0     0.0288
   1745 C           -3.0340     4.1185     6.2386 C       6      r6    -0.0107
   1746 C           -2.6396     3.0017     4.1563 C       0      r0     0.0151
   1747 C           -2.2576     4.2437     4.8718 C       0      r0     0.0036
   1748 C           -1.0993     4.8750     4.9785 C       0      r0     0.0146
   1749 C           -0.1302     5.7987     5.1667 C       0      r0    -0.0190
   1750 C            0.8731     5.6496     6.1392 C       0      r0    -0.0124
   1751 C            3.1101     5.4850     2.9006 C       6      r6    -0.0213
   1752 C            3.7492     5.2171     4.2677 C       6      r6     0.0069
   1753 H            3.9357     1.9242     5.9723 H       0      r0     0.0269
   1754 C            4.4681     4.0559     4.5209 C       6      r6    -0.0013
   1755 C            4.9167     3.7812     3.2414 C       6      r6     0.0083
   1756 C            5.3821     4.0216     5.8754 C       6      r6    -0.0091
   1757 C            5.8788     2.9170     6.0002 C       0      r0    -0.0070
   1758 C            5.9338     4.6326     2.6588 C       5      r5    -0.0220
   1759 H            6.4651     5.6210     3.1345 H       0      r0     0.0182
   1760 H            8.2550     3.5123     4.9187 H       0      r0     0.0207
   1761 C            8.7390     2.7673     5.5881 C       0      r0    -0.0329
   1762 H            9.1878     3.2574     2.3182 H       0      r0     0.0211
   1763 C            9.4427     4.3061     2.5082 C       6      r6    -0.0195
   1764 H            9.9150     4.7120     4.4829 H       0      r0     0.0198
   1765 C            9.7806     5.1270     3.5415 C       6      r6    -0.0177
   1766 C           10.0880     1.9745     5.3301 C       6      r6     0.0027
   1767 C           11.0863     2.1640     3.0774 C       6      r6    -0.0075
   1768 C           11.1168     2.4837     4.5211 C       6      r6    -0.0061
   1769 C           12.1322     3.6284     4.4242 C       6      r6    -0.0016
   1770 C           12.1184     2.5792     2.1784 C       6      r6     0.0022
   1771 C           12.2186     4.1858     5.7884 C       5      r5    -0.0041
   1772 C           12.6254     4.6088     3.4593 C       6      r6     0.0024
   1773 C           12.7131     4.1452     2.2147 C       6      r6     0.0091
   1774 C           12.6264     5.6069     5.7007 C       5      r5     0.0053
   1775 C          -15.0021     9.3663     3.3964 C       0      r0    -0.0202
   1776 H          -14.8324     7.7211     5.5294 H       0      r0     0.0182
   1777 C          -13.8698     7.9882     4.9586 C       6      r6    -0.0173
   1778 C          -13.6668     8.9994     3.9679 C       6      r6     0.0048
   1779 C          -12.7783     7.9352     5.7898 C       6      r6     0.0066
   1780 C          -12.2161     9.3158     3.6663 C       6      r6    -0.0010
   1781 C          -11.4910     9.1820     2.3444 C       0      r0    -0.0120
   1782 C          -11.4176     8.3563     5.8348 C       6      r6    -0.0011
   1783 C          -11.1210     9.0059     4.4879 C       6      r6     0.0000
   1784 H          -11.2532     8.2882     1.5550 H       0      r0     0.0204
   1785 H          -10.3857     6.6392     3.4927 H       0      r0     0.0229
   1786 C           -9.9337     9.7244     4.9867 C       6      r6    -0.0168
   1787 C           -9.6287     6.3854     5.3950 C       0      r0     0.0031
   1788 C           -8.9592     7.5894     6.1208 C       6      r6    -0.0199
   1789 C           -8.7899     9.0557     5.3044 C       6      r6    -0.0000
   1790 C           -7.5260     9.3734     4.8636 C       0      r0    -0.0042
   1791 H           -6.6783     8.7691     2.8834 H       0      r0     0.0203
   1792 C           -6.9791     7.7552     2.3742 C       0      r0    -0.0144
   1793 H           -7.0185     6.7230     4.5001 H       0      r0     0.0213
   1794 C           -6.6313     6.8440     3.4565 C       0      r0    -0.0164
   1795 C           -6.4530     9.1333     5.6413 C       0      r0    -0.0053
   1796 C           -5.3878     8.9520     6.4336 C       0      r0     0.0007
   1797 C           -4.7059     6.5714     2.2147 C       6      r6    -0.0143
   1798 C           -4.1255     7.3934     4.9565 C       6      r6     0.0014
   1799 C           -3.7806     7.3362     3.4597 C       6      r6     0.0019
   1800 C           -3.8053     8.3954     5.9220 C       7      r7    -0.0021
   1801 C           -2.7162     7.9817     3.3549 C       7      r7    -0.0046
   1802 C           -2.4663     8.9572     6.2682 C       6      r6    -0.0012
   1803 C           -1.6628     8.6481     3.7411 C       7      r7    -0.0207
   1804 C           -1.4188     8.7713     5.2149 C       6      r6     0.0010
   1805 H           -0.9007     9.1027     2.8931 H       0      r0     0.0135
   1806 H           -0.5149     6.7182     4.9544 H       0      r0     0.0186
   1807 C           -0.0830     9.2684     5.5600 C       6      r6    -0.0178
   1808 H            0.7945     9.6544     4.9179 H       0      r0     0.0138
   1809 H            1.2923     6.7250     6.3816 H       0      r0     0.0153
   1810 H            2.3405     6.2708     2.7446 H       0      r0     0.0133
   1811 H            3.0702     7.9056     4.2084 H       0      r0     0.0154
   1812 C            4.0875     7.8391     4.3775 C       5      r5    -0.0364
   1813 C            4.4735     6.3870     4.7403 C       6      r6    -0.0032
   1814 H            4.3991     7.8319     3.2045 H       0      r0     0.0149
   1815 C            4.8097     8.5705     5.2414 C       5      r5     0.0092
   1816 C            5.2033     6.4563     5.9182 C       6      r6     0.0009
   1817 C            5.0113    10.0690     4.9767 C       0      r0    -0.0268
   1818 C            5.4462     7.9026     6.2587 C       5      r5    -0.0036
   1819 C           10.5576     6.4330     2.9143 C       6      r6    -0.0047
   1820 C           11.2128     8.8845     5.3171 C       0      r0    -0.0081
   1821 C           11.3473     8.1480     4.4371 C       0      r0    -0.0030
   1822 C           11.6291     6.9167     3.7475 C       0      r0    -0.0036
   1823 H           12.5722     9.5555     2.6994 H       0      r0     0.0236
   1824 C           12.8415     5.9457     4.2772 C       5      r5    -0.0201
   1825 H           13.6483     6.5249     3.9214 H       0      r0     0.0251
   1826 H           14.4220     9.4611     4.0919 H       0      r0     0.0141
   1827 C          -14.5921    10.1617     2.2785 C       0      r0    -0.0023
   1828 C          -14.7016    13.4228     5.5499 C       6      r6     0.0224
   1829 C          -14.1829    12.3813     6.4186 C       6      r6    -0.0035
   1830 C          -13.8336    13.3435     4.3766 C       6      r6    -0.0110
   1831 C          -12.8994    11.9416     6.0057 C       5      r5    -0.0201
   1832 C          -12.7669    12.7728     4.7250 C       6      r6     0.0040
   1833 C          -11.6799    13.1097     4.1337 C       6      r6    -0.0028
   1834 C          -11.7222    13.8077     2.7007 C       6      r6    -0.0014
   1835 C          -10.3259    12.8508     4.2294 C       5      r5    -0.0070
   1836 C          -10.0846    13.4268     5.4930 C       0      r0    -0.0077
   1837 H           -9.6787    10.7026     4.4362 H       0      r0     0.0197
   1838 C           -9.6499    13.1345     2.7249 C       5      r5     0.0001
   1839 C           -8.2278    12.7919     2.3534 C       0      r0    -0.0293
   1840 H           -8.1406    13.3457     5.2430 H       0      r0     0.0264
   1841 H           -7.8654    12.6185     3.4126 H       0      r0     0.0181
   1842 C           -7.6835    13.3030     6.0663 C       6      r6    -0.0378
   1843 H           -7.6210    10.9865     3.2313 H       0      r0     0.0153
   1844 C           -6.9983    10.5546     3.9930 C       0      r0    -0.0253
   1845 H           -7.1224    12.3196     6.3945 H       0      r0     0.0230
   1846 C           -5.6926    10.4844     3.8898 C       0      r0    -0.0013
   1847 C           -4.4744    10.6701     3.3589 C       0      r0    -0.0039
   1848 C           -4.1171    14.0465     2.2650 C       0      r0    -0.0332
   1849 H           -3.2597    13.8272     2.8955 H       0      r0     0.0345
   1850 C           -3.2643    10.4471     2.6239 C       0      r0    -0.0197
   1851 H           -3.3562    13.5645     5.7801 H       0      r0     0.0196
   1852 H           -2.1271    11.7704     4.9077 H       0      r0     0.0227
   1853 C           -1.8701    11.1388     2.7618 C       6      r6     0.0149
   1854 C           -1.4148    11.5943     4.0530 C       6      r6    -0.0129
   1855 C           -0.0888    11.8352     4.2208 C       6      r6     0.0133
   1856 C            0.2671    12.8172     5.3507 C       5      r5    -0.0536
   1857 C            1.0623    11.5851     3.3673 C       6      r6     0.0461
   1858 C            1.3860    13.4074     5.0620 C       5      r5     0.1948
   1859 O            2.1851    14.0968     3.7561 O       5      r5    -0.5180
   1860 C            2.2351    13.2208     6.0205 C       5      r5    -0.0367
   1861 C            2.3889    11.2218     3.5563 C       0      r0    -0.0128
   1862 H            2.9552    11.3488     4.4571 H       0      r0     0.0254
   1863 C            3.4443   -14.1977     4.4302 C       5      r5     0.2650
   1864 C            3.6517    13.6569     5.8216 C       5      r5    -0.0456
   1865 H            4.3494    10.7672     5.3535 H       0      r0     0.0192
   1866 C            4.6969    13.4796     6.4897 C       0      r0     0.0044
   1867 C            5.2794    10.3798     3.6845 C       0      r0    -0.0036
   1868 C            5.4136    10.6716     2.4191 C       5      r5    -0.0065
   1869 H            7.2459    11.4049     6.2516 H       0      r0     0.0187
   1870 H            9.0059    12.9027     6.1478 H       0      r0     0.0167
   1871 C            9.3700    13.4658     2.4833 C       0      r0     0.0168
   1872 H           10.1122    11.3579     5.6310 H       0      r0     0.0198
   1873 C           10.1287    12.7602     2.9129 C       0      r0     0.0132
   1874 C           10.5511    11.0622     6.5710 C       6      r6    -0.0229
   1875 C           11.4646    12.1914     3.3304 C       0      r0     0.0189
   1876 C           12.1303    11.5523     4.3598 C       0      r0    -0.0067
   1877 C           12.6033    12.9025     6.2318 C       0      r0     0.0209
   1878 C           13.0715    11.7344     5.5582 C       0      r0    -0.0206
   1879 H           13.9210    13.5280     2.9195 H       0      r0     0.0297
   1880 H           14.1582    11.3108     5.3554 H       0      r0     0.0147
   1881 C          -13.4197   -11.1914     7.9612 C       6      r6     0.0089
   1882 H          -13.6166   -12.1081    10.5390 H       0      r0     0.0131
   1883 H          -12.8815   -13.5012     8.0088 H       0      r0     0.0189
   1884 C          -13.3100   -12.4453     8.5893 C       6      r6    -0.0284
   1885 C          -12.6161   -12.1246     9.8944 C       6      r6    -0.0144
   1886 C          -11.8241   -13.6083    10.2951 C       0      r0    -0.0176
   1887 C          -11.4135   -11.2947     9.5725 C       6      r6     0.0016
   1888 H          -11.3832   -13.8241     9.2441 H       0      r0     0.0215
   1889 C          -10.2336   -11.6400     9.9921 C       0      r0    -0.0029
   1890 C          -10.0040   -13.3014     7.3415 C       0      r0    -0.0079
   1891 C           -9.1099   -12.0078    10.0546 C       0      r0     0.0014
   1892 C           -8.0829   -12.6585    10.8049 C       0      r0     0.0021
   1893 C           -6.2492   -14.0198     7.7276 C       6      r6    -0.0016
   1894 C           -5.5187   -10.4751    10.4938 C       6      r6    -0.0215
   1895 C           -5.1179   -13.2320     8.1259 C       6      r6    -0.0003
   1896 C           -5.0677   -12.1891     7.2121 C       6      r6    -0.0008
   1897 H           -5.2480   -10.9005     9.4689 H       0      r0     0.0225
   1898 C           -4.0654   -14.0804     8.9270 C       6      r6     0.0037
   1899 H           -4.1519   -10.3526     7.3576 H       0      r0     0.0199
   1900 C           -3.8210   -11.5054     7.6487 C       6      r6    -0.0211
   1901 C           -3.1335   -13.2336     9.4359 C       6      r6    -0.0167
   1902 C           -3.1425   -11.8488     8.8672 C       6      r6     0.0099
   1903 H           -2.2650   -13.5072    10.2809 H       0      r0     0.0201
   1904 C           -1.9519   -10.8465     9.2727 C       0      r0    -0.0382
   1905 C           -1.8143   -14.2153     6.8354 C       0      r0     0.0019
   1906 C           -1.1321   -11.3916    10.5679 C       0      r0    -0.0033
   1907 H           -1.0152   -10.5934     9.0111 H       0      r0     0.0189
   1908 C           -0.6330   -13.5039     6.6257 C       0      r0    -0.0053
   1909 C            0.3918   -12.6086     9.6041 C       0      r0    -0.0092
   1910 C            1.5303   -13.1699     9.3014 C       0      r0    -0.0030
   1911 H            2.2081    -9.9566     9.8971 H       0      r0     0.0183
   1912 C            2.7016   -13.7746     9.0405 C       0      r0    -0.0185
   1913 H            3.4459   -13.4953     9.7827 H       0      r0     0.0203
   1914 H            4.5881    -9.6468     7.4921 H       0      r0     0.0162
   1915 H            6.2477   -12.3283     7.2951 H       0      r0     0.0249
   1916 C            5.9097   -13.1257     9.1948 C       0      r0    -0.0193
   1917 C            6.1352   -12.0902     8.4338 C       0      r0    -0.0246
   1918 H            5.8062   -12.9019    10.2703 H       0      r0     0.0167
   1919 C            6.4040   -10.5402    10.2030 C       5      r5    -0.0081
   1920 C            6.4916   -10.7377     8.7070 C       5      r5     0.0410
   1921 C            8.6310   -13.4970     7.6169 C       5      r5    -0.0363
   1922 C            8.8319   -12.6021     8.7626 C       5      r5     0.2185
   1923 C            9.0786   -13.3181     9.9108 C       5      r5    -0.0483
   1924 O            9.2326   -11.1037     8.6187 O       5      r5    -0.4816
   1925 C           10.0677   -12.3841    10.6694 C       5      r5    -0.0278
   1926 C           10.0606   -11.1036     9.9410 C       5      r5     0.1981
   1927 C           13.0527   -11.2389     9.9727 C       0      r0     0.0115
   1928 C           13.2082   -12.6377    10.2289 C       7      r7     0.0072
   1929 O           13.7568   -11.9446     6.8888 O       5      r5    -0.5033
   1930 C           13.9813   -13.3790     9.2656 C       5      r5    -0.0407
   1931 C           14.4754   -12.7040     7.9778 C       5      r5     0.2187
   1932 C           14.9899   -13.8852     7.3322 C       6      r6    -0.0251
   1933 H          -14.4125    -9.3765     9.0335 H       0      r0     0.0214
   1934 C          -13.5419   -10.0403     8.9372 C       6      r6    -0.0247
   1935 C          -12.3266    -9.9509     9.7441 C       6      r6     0.0012
   1936 C          -12.2985    -8.7153    10.4826 C       0      r0    -0.0315
   1937 H          -11.2231    -8.2712     8.1948 H       0      r0     0.0527
   1938 C          -10.9160    -8.4733    10.4174 C       6      r6     0.0009
   1939 C          -10.6284    -8.6732     8.9800 C       6      r6    -0.0113
   1940 C           -9.0402    -6.7898    10.6236 C       6      r6    -0.0047
   1941 C           -9.1754    -8.3005     8.8926 C       6      r6     0.0058
   1942 C           -9.0205    -6.7958     9.0744 C       6      r6     0.0214
   1943 H           -8.2594    -8.5877     8.3727 H       0      r0     0.0335
   1944 H           -7.0635   -10.2643     7.0503 H       0      r0     0.0261
   1945 C           -5.3358    -8.8262     6.8672 C       6      r6     0.0017
   1946 C           -5.4525    -8.0150     9.5398 C       0      r0    -0.0209
   1947 C           -5.4955    -8.4353     8.2858 C       0      r0    -0.0000
   1948 H           -4.9488    -7.0561     9.5458 H       0      r0     0.0218
   1949 H           -2.2695    -9.7953     9.5197 H       0      r0     0.0183
   1950 C           -2.5246    -6.4717     8.2414 C       5      r5    -0.0194
   1951 C           -2.0464    -6.7939     9.6447 C       6      r6    -0.0025
   1952 C           -1.4892    -7.1363     7.4513 C       5      r5     0.0044
   1953 C           -0.8323    -7.5083     9.6921 C       6      r6    -0.0001
   1954 C           -0.4685    -7.8758     8.2670 C       5      r5    -0.0005
   1955 H            0.2975   -10.0984     9.7312 H       0      r0     0.0184
   1956 H            0.4003    -9.0822     7.2761 H       0      r0     0.0141
   1957 C            0.8242    -8.1618     7.7512 C       7      r7    -0.0135
   1958 C            0.9957    -9.3885     9.9239 C       7      r7    -0.0312
   1959 C            1.6694    -8.3815     8.8434 C       7      r7     0.0120
   1960 C            3.1351    -8.1257     8.9141 C       0      r0     0.0017
   1961 H            3.4705    -8.1972     7.9290 H       0      r0     0.0185
   1962 C            4.1709    -8.6777    10.0239 C       6      r6     0.0073
   1963 H            4.3145    -8.2310     6.5935 H       0      r0     0.0165
   1964 C            5.3925    -8.8106     9.4254 C       6      r6    -0.0001
   1965 C            5.7430    -9.5091     8.1029 C       5      r5    -0.0468
   1966 C            6.4027    -8.9664    10.3358 C       6      r6     0.0049
   1967 H            6.6442    -9.1788     7.5515 H       0      r0     0.0308
   1968 C            7.9154    -8.4513     9.7540 C       0      r0    -0.0062
   1969 C            8.1400    -7.1588     9.5375 C       0      r0    -0.0069
   1970 H            8.5285    -9.3827    10.0367 H       0      r0     0.0475
   1971 C            8.7821    -6.1301     9.3461 C       0      r0     0.0272
   1972 H           10.4233    -6.9929     6.4781 H       0      r0     0.0243
   1973 C           11.0114    -9.9929    10.3604 C       0      r0    -0.0649
   1974 H           10.4851    -9.3712     9.2193 H       0      r0     0.0913
   1975 O           11.8775    -6.5916     9.6230 O       6      r6    -0.4712
   1976 C           12.5827   -10.0146    10.2915 C       0      r0     0.0310
   1977 C           13.1827    -6.5737     8.8362 C       6      r6     0.2415
   1978 C           13.5099    -8.9898     9.6357 C       0      r0     0.0570
   1979 C           13.9318    -7.9186     8.8220 C       0      r0    -0.0472
   1980 H           14.7386    -8.1607     8.0165 H       0      r0     0.0240
   1981 H          -14.6262    -6.0846     7.4888 H       0      r0     0.0179
   1982 H          -14.5941    -3.8011     9.6815 H       0      r0     0.0169
   1983 C          -13.8415    -4.5594    10.0155 C       0      r0    -0.0034
   1984 C          -12.6831    -3.9272     9.8882 C       0      r0    -0.0019
   1985 C          -11.6942    -3.0104     9.7250 C       0      r0    -0.0001
   1986 C          -10.1764    -3.3259     9.9666 C       0      r0    -0.0080
   1987 C          -10.1831    -3.0946     6.6433 C       5      r5     0.0181
   1988 C           -9.9688    -4.5384    10.7223 C       0      r0    -0.0018
   1989 C           -9.6872    -2.7759     8.7121 C       0      r0    -0.0003
   1990 C           -9.3735    -2.2235     7.6309 C       0      r0    -0.0246
   1991 C           -8.2475    -5.7991     8.3943 C       0      r0    -0.0044
   1992 C           -8.0389    -5.7685     6.9026 C       0      r0    -0.0164
   1993 H           -8.3231    -4.0805     9.9387 H       0      r0     0.0163
   1994 H           -7.7151    -4.8773     8.8207 H       0      r0     0.0137
   1995 C           -6.7203    -5.4443     6.7210 C       0      r0     0.0062
   1996 H           -6.3963    -2.6789     9.1476 H       0      r0     0.0192
   1997 C           -5.9476    -4.5021     7.7929 C       6      r6    -0.0030
   1998 C           -5.4838    -3.5625     6.8568 C       6      r6    -0.0197
   1999 C           -5.1115    -4.5895     8.8457 C       6      r6    -0.0103
   2000 C           -4.1899    -2.9509     6.9957 C       6      r6    -0.0045
   2001 C           -4.1045    -4.2314     9.3165 C       6      r6    -0.0008
   2002 C           -3.5510    -4.9542    10.5520 C       0      r0    -0.0223
   2003 C           -3.4786    -3.1941     8.2527 C       6      r6    -0.0044
   2004 H           -3.1835    -5.7955     7.6690 H       0      r0     0.0213
   2005 C           -2.3019    -5.7198    10.6104 C       6      r6    -0.0006
   2006 H           -2.2816    -2.8559    10.2220 H       0      r0     0.0224
   2007 C           -2.2506    -2.5746     8.4556 C       0      r0     0.0029
   2008 C           -1.6378    -2.2802     7.2931 C       0      r0     0.0100
   2009 C           -1.4232    -2.8092     9.5114 C       0      r0    -0.0336
   2010 C           -0.2025    -3.6216     9.4179 C       0      r0    -0.0183
   2011 H           -0.2204    -4.0372     8.4273 H       0      r0     0.0275
   2012 C            0.7721    -3.2200    10.1596 C       0      r0     0.0178
   2013 C            3.5531    -2.6040     8.0579 C       0      r0     0.0163
   2014 C            4.1506    -3.3903     7.2753 C       0      r0     0.0058
   2015 O            4.1525    -4.8349    10.6457 O       0      r0    -0.4648
   2016 C            5.3581    -5.3371    10.6985 C       0      r0     0.2998
   2017 H            5.5382    -6.1585    10.0230 H       0      r0    -0.0098
   2018 H            8.9385    -4.1224     8.5920 H       0      r0     0.0217
   2019 C            9.6236    -5.0216     9.0092 C       0      r0    -0.0737
   2020 C           11.0506    -5.2492     9.3262 C       6      r6     0.2214
   2021 H           11.4134    -4.5803     6.8657 H       0      r0     0.0214
   2022 H           11.4329    -3.0450     8.8189 H       0      r0     0.0202
   2023 C           11.8173    -4.1313     9.0733 C       6      r6    -0.0607
   2024 C           13.1074    -2.1905     6.8651 C       0      r0    -0.0025
   2025 C           13.3567    -4.0043     8.9965 C       6      r6     0.0208
   2026 C           13.8018    -5.4456     8.5251 C       6      r6    -0.0582
   2027 C           13.7146    -3.2100     7.6904 C       5      r5    -0.0095
   2028 H           13.9138    -3.5307     9.8522 H       0      r0     0.0180
   2029 C           14.8820    -5.3383     7.4687 C       5      r5    -0.0157
   2030 C           14.9498    -3.9816     7.1224 C       5      r5     0.0015
   2031 C          -15.0807     1.2896     6.8117 C       0      r0     0.0009
   2032 H          -14.5561     1.7867     8.6771 H       0      r0     0.0195
   2033 C          -14.8081    -0.9947    10.0549 C       0      r0    -0.0157
   2034 C          -14.0970     0.8010     8.0372 C       7      r7    -0.0151
   2035 C          -13.7331    -0.6633     7.9136 C       7      r7    -0.0005
   2036 C          -13.7445    -1.3900     9.0692 C       0      r0    -0.0033
   2037 C          -13.1351    -1.8516     7.0143 C       5      r5    -0.0067
   2038 C          -12.6198     1.4359     8.4754 C       7      r7    -0.0005
   2039 C          -12.3947    -1.6372     9.8528 C       0      r0     0.0000
   2040 C          -12.1906    -0.3027    10.5506 C       0      r0     0.0023
   2041 C          -11.7374    -1.4039     6.8492 C       5      r5     0.0078
   2042 C          -11.3893     0.5564     8.2670 C       7      r7    -0.0023
   2043 C          -11.0485    -0.1607     7.0296 C       7      r7     0.0227
   2044 C          -10.7905     0.1653    10.6648 C       6      r6    -0.0030
   2045 C          -10.2619     0.6341     9.3010 C       6      r6     0.0026
   2046 C           -9.4088     1.8941     6.9739 C       6      r6     0.0149
   2047 C           -9.4207     1.7435     9.3604 C       6      r6     0.0003
   2048 H           -8.6877    -1.7039     7.5076 H       0      r0     0.0281
   2049 H           -7.4415     1.4217     8.7852 H       0      r0     0.0223
   2050 H           -6.7369    -0.4270     7.4847 H       0      r0     0.0191
   2051 C           -6.6389     1.5920     7.9144 C       5      r5    -0.0171
   2052 C           -6.5254    -1.5365     9.2787 C       7      r7    -0.0206
   2053 C           -5.9364    -0.7305     8.0814 C       7      r7    -0.0146
   2054 C           -6.3219    -1.0255    10.5008 C       7      r7     0.0001
   2055 C           -5.4329     0.6404     8.2640 C       7      r7    -0.0035
   2056 C           -4.3645     0.6363     9.2519 C       6      r6     0.0045
   2057 C           -4.1991    -1.7446     6.3822 C       0      r0    -0.0004
   2058 H           -2.9658     1.7117     7.7380 H       0      r0     0.0494
   2059 C           -3.1432     1.2257     8.8055 C       6      r6     0.0037
   2060 C           -1.9891     0.3502    10.5962 C       6      r6    -0.0009
   2061 C           -1.9257     1.0597     9.4005 C       6      r6    -0.0455
   2062 H           -0.6776    -1.9949     9.8199 H       0      r0     0.0233
   2063 C           -0.6143     1.4988     8.5669 C       0      r0     0.3106
   2064 O           -0.5944     1.4193     7.3117 O       0      r0    -0.4920
   2065 H            0.1691     1.0950     9.3075 H       0      r0    -0.0266
   2066 C            2.8407     1.1253     7.4224 C       6      r6     0.0167
   2067 C            2.6636     0.9547     8.7556 C       6      r6     0.0030
   2068 C            2.8788    -1.5964     8.7799 C       0      r0    -0.0004
   2069 C            3.1165    -0.3017     9.5337 C       0      r0     0.0075
   2070 C            4.1424     1.7081     7.0934 C       6      r6    -0.0198
   2071 C            4.4987    -0.3754    10.0673 C       0      r0     0.0071
   2072 C            4.6572    -1.6425    10.7473 C       0      r0     0.0240
   2073 C            5.2926     0.4530     6.4535 C       6      r6     0.0026
   2074 H            5.4040    -1.3309     7.4774 H       0      r0     0.0214
   2075 C            6.0572    -0.4661     7.3157 C       6      r6    -0.0250
   2076 C            6.2717     1.2661    10.4144 C       6      r6    -0.0180
   2077 H            6.0339     1.6781     9.3083 H       0      r0     0.0189
   2078 C            7.3112    -0.0583     7.8647 C       6      r6     0.0035
   2079 C            7.7833    -0.6685     9.0345 C       0      r0    -0.0107
   2080 C            7.9643    -1.2352    10.2391 C       0      r0    -0.0075
   2081 C            7.8523     1.3930     7.5828 C       6      r6    -0.0324
   2082 H            8.6211     1.8006    10.6587 H       0      r0     0.0162
   2083 H            8.9080     1.8154     7.4077 H       0      r0     0.0195
   2084 H            9.8339     0.1182    10.9280 H       0      r0     0.0245
   2085 H           10.1124    -1.2873     9.5469 H       0      r0     0.0210
   2086 C           10.2278    -0.7435    10.3705 C       0      r0    -0.0371
   2087 C           11.5230    -0.4913    10.2004 C       0      r0    -0.0285
   2088 H           11.4912    -0.1945     9.1174 H       0      r0     0.0183
   2089 H           12.0533    -1.5240    10.5026 H       0      r0     0.0224
   2090 C           13.7431    -0.8425     7.0633 C       0      r0    -0.0078
   2091 H           14.6064    -0.6803     9.5058 H       0      r0     0.0190
   2092 C           15.1082     3.7222     7.7324 C       7      r7    -0.0040
   2093 C          -14.9318     2.7162     6.7371 C       7      r7    -0.0035
   2094 C          -14.0442     4.1763     8.1546 C       7      r7    -0.0045
   2095 H          -13.0848     5.3870    10.6263 H       0      r0     0.0189
   2096 C          -12.8376     4.5963     8.7435 C       7      r7     0.0026
   2097 C          -12.2324     2.5647     9.3988 C       0      r0    -0.0075
   2098 C          -12.2003     5.0557    10.0886 C       0      r0    -0.0189
   2099 C          -11.8967     3.5102    10.4182 C       0      r0     0.0011
   2100 C          -11.9312     4.2368     7.6740 C       7      r7    -0.0206
   2101 H          -11.0168     4.5523     7.8327 H       0      r0     0.0204
   2102 C           -9.6776     5.4833    10.4571 C       7      r7     0.0040
   2103 C           -9.3229     2.4833     8.1475 C       7      r7    -0.0216
   2104 H           -9.6842     5.2561     7.1238 H       0      r0     0.0153
   2105 H           -9.0541     3.5567     8.3830 H       0      r0     0.0176
   2106 C           -8.8248     2.2511    10.5469 C       6      r6    -0.0037
   2107 C           -8.4350     5.9105     9.7874 C       7      r7    -0.0204
   2108 H           -7.9148     5.1292     9.2224 H       0      r0     0.0156
   2109 C           -7.5986     3.0032    10.3697 C       0      r0    -0.0115
   2110 C           -6.6462     3.3687     9.7343 C       0      r0    -0.0288
   2111 C           -6.1758     2.9795     8.3156 C       5      r5     0.0011
   2112 H           -6.0962     4.1759    10.1073 H       0      r0     0.0159
   2113 H           -5.8481     5.9200     8.0881 H       0      r0     0.0179
   2114 C           -5.5487     3.7978     7.5139 C       5      r5    -0.0056
   2115 C           -5.0033     5.2685     7.9964 C       6      r6    -0.0211
   2116 H           -4.7086     3.4348    10.5795 H       0      r0     0.0210
   2117 C           -4.0812     5.3330     6.4638 C       6      r6     0.0042
   2118 C           -4.0471     5.5770     8.9530 C       6      r6    -0.0002
   2119 C           -2.6070     5.2360     8.6023 C       6      r6     0.0034
   2120 C           -2.2863     4.3829     7.5373 C       6      r6    -0.0141
   2121 C           -1.8121     5.4968     9.9509 C       5      r5    -0.0201
   2122 H           -1.2501     4.1703     7.0544 H       0      r0     0.0454
   2123 H           -0.7987     5.9747     9.6237 H       0      r0     0.0170
   2124 H            0.1400     3.6230     8.7269 H       0      r0     0.0221
   2125 H            0.5520     4.0924    11.3901 H       0      r0     0.0182
   2126 C            0.9868     4.1018     8.1418 C       7      r7    -0.0071
   2127 C            1.3187     5.1133     9.2080 C       7      r7    -0.0101
   2128 C            1.5276     4.3370     6.8564 C       7      r7     0.0287
   2129 H            3.7785     3.5137     6.3128 H       0      r0     0.0254
   2130 C            3.0007     2.1439     9.6274 C       6      r6     0.0019
   2131 C            2.9407     4.4246     6.5492 C       7      r7    -0.0151
   2132 C            3.6098     5.3577     7.4651 C       6      r6    -0.0000
   2133 C            3.9476     2.9660     9.1790 C       6      r6    -0.0005
   2134 C            4.1773     4.1329    10.2674 C       5      r5     0.0034
   2135 C            4.5879     2.8413     7.9354 C       6      r6    -0.0205
   2136 C            5.0313     5.1522     6.7810 C       6      r6     0.0036
   2137 C            5.2810     5.1361    10.1506 C       0      r0    -0.0227
   2138 C            5.5010     5.7491     8.8298 C       6      r6     0.0037
   2139 H            5.5451     3.4377     7.9746 H       0      r0     0.0182
   2140 C            6.0029     5.1407     7.7430 C       6      r6    -0.0240
   2141 H            6.8418     4.6239     8.1593 H       0      r0     0.0155
   2142 H            7.2400     2.3786     7.9085 H       0      r0     0.0145
   2143 H            8.5186     5.3498     7.4641 H       0      r0     0.0180
   2144 H            9.2801     3.4648     9.1988 H       0      r0     0.0133
   2145 H            9.0294     3.5137     6.3537 H       0      r0     0.0176
   2146 C            9.1329     5.5715     8.3783 C       5      r5    -0.0183
   2147 C            9.4230     4.7095     9.3635 C       5      r5    -0.0158
   2148 C           10.0143     5.3922    10.4850 C       5      r5     0.0034
   2149 H           12.7866     5.3072    10.3312 H       0      r0     0.0189
   2150 C           12.5907     5.9421     7.1846 C       0      r0    -0.0257
   2151 C           12.8620     2.8885    10.4635 C       0      r0     0.0033
   2152 C           13.4427     4.3560    10.0851 C       0      r0    -0.0304
   2153 C           13.3548     4.9506     7.7377 C       0      r0     0.0013
   2154 C           13.8656     4.2949     8.5994 C       0      r0     0.0021
   2155 H           14.2353     4.4484    10.9054 H       0      r0     0.0210
   2156 C          -14.6252     8.8383     8.2197 C       0      r0     0.0029
   2157 C          -14.2461     7.7963     9.0989 C       5      r5    -0.0031
   2158 C          -13.9503     8.5332    10.3818 C       5      r5    -0.0046
   2159 C          -13.4333     7.2139     6.9055 C       7      r7    -0.0191
   2160 H          -13.9027     6.1874     6.6520 H       0      r0     0.0222
   2161 C          -13.1621     7.1299     8.3037 C       5      r5     0.0008
   2162 C          -12.6575     8.9984     9.8954 C       6      r6    -0.0008
   2163 C          -12.1492     8.1694     8.7086 C       6      r6     0.0007
   2164 H          -10.5205     6.5158     9.1203 H       0      r0     0.0211
   2165 C          -10.9919     6.1992    10.1271 C       7      r7    -0.0144
   2166 C          -10.9126     8.5297     8.0639 C       6      r6    -0.0041
   2167 C          -10.2725     8.0517     6.7337 C       6      r6    -0.0006
   2168 C          -10.1460     9.5307     8.7403 C       6      r6    -0.0024
   2169 C           -9.0043     8.1925    10.3176 C       7      r7     0.0027
   2170 C           -8.7866     9.3262     9.4647 C       0      r0    -0.0070
   2171 C           -8.4007     7.1748     9.4990 C       7      r7    -0.0153
   2172 H           -8.2467     7.6739     7.0588 H       0      r0     0.0167
   2173 H           -7.7489     7.6241     8.8242 H       0      r0     0.0191
   2174 H           -7.2925    10.0369     7.1279 H       0      r0     0.0214
   2175 C           -7.3489     9.7418     9.5219 C       0      r0    -0.0043
   2176 C           -6.8104    10.0599     8.1135 C       0      r0    -0.0176
   2177 C           -6.6779     9.8304    10.8162 C       0      r0     0.0042
   2178 C           -5.5421     9.7045     7.7204 C       0      r0    -0.0228
   2179 C           -5.2045     7.2137    10.4805 C       6      r6    -0.0050
   2180 H           -4.8856     9.6033     8.3358 H       0      r0     0.0292
   2181 C           -4.6767     8.5042    10.7626 C       6      r6    -0.0006
   2182 C           -4.0074     6.6345     9.8721 C       6      r6    -0.0057
   2183 C           -3.3151     8.6414     9.9387 C       6      r6     0.0013
   2184 C           -3.0112    10.0696     9.7143 C       6      r6    -0.0182
   2185 C           -2.6595     6.6463    10.3303 C       6      r6    -0.0023
   2186 C           -2.3172     9.7760     7.4714 C       6      r6    -0.0032
   2187 C           -2.1865     7.9473     9.8927 C       6      r6    -0.0027
   2188 C           -1.1405     8.0564     8.6148 C       7      r7    -0.0177
   2189 C           -0.9769     9.0337     7.7906 C       6      r6     0.0060
   2190 H           -0.2954     7.1354     8.5783 H       0      r0     0.0145
   2191 C            0.1873     8.9902     6.9526 C       6      r6    -0.0234
   2192 H            1.0517     8.9842     7.5709 H       0      r0     0.0157
   2193 H            1.3843     7.3784     9.1002 H       0      r0     0.0149
   2194 C            1.9368     6.4517     8.9653 C       7      r7    -0.0207
   2195 C            3.2257     6.5078     8.2158 C       6      r6    -0.0018
   2196 H            3.2340     9.4966     8.7424 H       0      r0     0.0194
   2197 C            4.1144     9.5219     9.3611 C       0      r0    -0.0323
   2198 C            4.3537     6.7806     9.0035 C       6      r6    -0.0023
   2199 C            4.6333     8.0344     9.8359 C       0      r0     0.0031
   2200 H            4.8799    10.0041     8.6931 H       0      r0     0.0233
   2201 C            6.5504     8.0180     7.2996 C       0      r0    -0.0008
   2202 C            7.4131     8.0924     8.1106 C       0      r0    -0.0001
   2203 C            7.9392     9.0409     9.9167 C       6      r6     0.0099
   2204 C            8.4654     8.1915     8.8802 C       6      r6    -0.0032
   2205 C            9.2718     6.9102     9.0097 C       6      r6     0.0040
   2206 C           10.2717     6.9650    10.2068 C       6      r6    -0.0188
   2207 C           11.2696     9.7255     6.4709 C       6      r6     0.0026
   2208 H           11.1398     7.5251     9.7808 H       0      r0     0.0172
   2209 H           11.8485     6.4288     7.7406 H       0      r0     0.0203
   2210 C           11.9755     9.9726     8.8194 C       6      r6    -0.0172
   2211 C           12.0027     9.3454     7.5859 C       6      r6    -0.0201
   2212 H           12.4857     9.5143     9.7144 H       0      r0     0.0173
   2213 H           12.5858     8.4452     7.4921 H       0      r0     0.0177
   2214 H           15.0662    10.4141     6.4294 H       0      r0     0.0136
   2215 C          -14.9146    12.2706     7.7464 C       6      r6    -0.0028
   2216 C          -14.4959    11.0576     8.4381 C       7      r7    -0.0019
   2217 C          -14.8154     9.8920     7.6097 C       0      r0    -0.0171
   2218 C          -14.2689    11.1071     9.9189 C       7      r7     0.0066
   2219 C          -13.0958    11.4890    10.5150 C       0      r0    -0.0371
   2220 H          -13.2066    12.7710    10.2583 H       0      r0     0.0219
   2221 C          -12.2964    10.3950     9.8244 C       6      r6     0.0036
   2222 H          -12.6144    10.9613     6.3423 H       0      r0     0.0236
   2223 C          -10.7812    10.5914     9.3419 C       6      r6     0.0036
   2224 C          -10.1868    12.8117    10.0748 C       0      r0    -0.0003
   2225 C           -9.8245    11.6115     9.3559 C       0      r0    -0.0184
   2226 C           -9.8178    13.7498     6.8576 C       0      r0     0.0000
   2227 C           -9.0585    13.8296     9.8648 C       0      r0    -0.0009
   2228 H           -8.8286    11.5929     8.8885 H       0      r0     0.0218
   2229 C           -8.5848    13.0611     7.3951 C       6      r6    -0.0021
   2230 C           -8.3092    13.7519     8.5914 C       6      r6    -0.0036
   2231 H           -7.2198    12.1663    10.2403 H       0      r0     0.0211
   2232 C           -6.7622    13.5186     8.8819 C       6      r6     0.0034
   2233 C           -6.3520    12.7009     9.7268 C       7      r7    -0.0190
   2234 C           -4.8921    12.2665     9.5898 C       6      r6     0.0029
   2235 C           -4.4033    10.9900    10.4573 C       6      r6    -0.0007
   2236 C           -3.9199    12.8684     8.6762 C       6      r6    -0.0049
   2237 C           -2.7930    12.1505     8.1510 C       6      r6    -0.0025
   2238 C           -2.6355    10.7302     8.3939 C       6      r6     0.0008
   2239 H           -2.3505    10.2692    10.5239 H       0      r0     0.0250
   2240 H           -2.1181    13.2394    10.3395 H       0      r0     0.0201
   2241 C           -1.9127    12.9239     7.4438 C       0      r0    -0.0040
   2242 C           -1.2907    12.4337    10.1643 C       5      r5    -0.0157
   2243 C           -0.7024    12.5520     7.5806 C       7      r7     0.0006
   2244 C           -0.3477    12.3807     9.0655 C       5      r5     0.0031
   2245 C            0.3546    12.4933     6.7887 C       5      r5     0.0009
   2246 C            0.7722    11.6795     9.6440 C       5      r5    -0.0044
   2247 C            1.6556    13.1474     7.1811 C       5      r5     0.0009
   2248 C            2.2151    12.1238     9.2598 C       7      r7    -0.0049
   2249 C            2.4395    13.3256     8.3423 C       7      r7     0.0076
   2250 C            3.2749    12.1560    10.3052 C       6      r6    -0.0003
   2251 C            4.2601    10.8515    10.0551 C       6      r6    -0.0173
   2252 C            5.5168    11.6854     9.5515 C       6      r6    -0.0080
   2253 C            5.7179    13.1329     9.8746 C       6      r6     0.0040
   2254 C            5.7145    13.9745     8.6006 C       7      r7    -0.0019
   2255 H            5.6182    11.2364     7.2757 H       0      r0     0.0215
   2256 C            5.8182    13.2183     7.3381 C       7      r7     0.0002
   2257 C            6.5197    11.8523     7.0171 C       7      r7    -0.0372
   2258 C            6.9717    11.4676     9.0307 C       7      r7    -0.0035
   2259 C            7.4090    10.1673     9.4882 C       0      r0    -0.0037
   2260 C            7.5967    12.1614     7.8875 C       7      r7     0.0048
   2261 C            8.6526    13.7176     8.3304 C       5      r5    -0.0055
   2262 C            8.9294    12.5054     7.4883 C       7      r7    -0.0147
   2263 C            9.0447    13.8815     9.6015 C       5      r5     0.0028
   2264 C            9.9002    12.9480    10.3277 C       5      r5    -0.0006
   2265 C           10.2186    11.6104     7.6974 C       6      r6     0.0037
   2266 C           10.8005    11.8639    10.1442 C       5      r5    -0.0017
   2267 C           11.1975    11.2057     8.9230 C       6      r6    -0.0017
   2268 H           11.8378    14.0675     7.8951 H       0      r0     0.0400
   2269 C           11.9928    13.9890     6.7770 C       0      r0    -0.0514
   2270 H           13.5525    11.7882     8.8573 H       0      r0     0.0209
   2271 C           13.8798    12.1326     9.8825 C       7      r7    -0.0124
   2272 C           14.6328    13.7920     9.5168 C       5      r5    -0.0131
   2273 C           14.8941    11.2613    10.7031 C       7      r7    -0.0191
   2274 C           15.1478    13.5790     8.1712 C       6      r6     0.0004
   2275 H          -14.8076   -14.1615    10.0956 H       0      r0     0.0153
   2276 C          -14.7584   -13.3447    12.9138 C       0      r0    -0.0067
   2277 C          -13.3420   -13.9215    13.0446 C       0      r0    -0.0024
   2278 H          -12.5906   -11.5065    11.8616 H       0      r0     0.0226
   2279 C          -12.1908   -13.3647    12.5436 C       0      r0     0.0011
   2280 C          -12.0474   -11.8531    12.7618 C       0      r0    -0.0518
   2281 H          -12.1954   -11.9327    13.9996 H       0      r0     0.0252
   2282 C          -11.8448   -14.1444    11.3765 C       0      r0     0.0004
   2283 H          -10.9068   -11.8223    12.6413 H       0      r0     0.0213
   2284 H           -9.1991   -13.9430    12.0395 H       0      r0     0.0225
   2285 H           -9.1741   -12.3048    13.5112 H       0      r0     0.0197
   2286 C           -8.8149   -13.7189    14.6360 C       0      r0     0.0012
   2287 C           -8.7249   -13.9818    11.1515 C       0      r0    -0.0242
   2288 C           -8.4010   -12.8558    13.9632 C       0      r0    -0.0196
   2289 C           -7.0266   -12.2973    11.8373 C       5      r5    -0.0052
   2290 C           -6.8414   -12.6747    13.2692 C       5      r5    -0.0145
   2291 C           -6.1050   -10.3707    12.9951 C       6      r6    -0.0055
   2292 H           -6.2637   -13.6357    13.1571 H       0      r0     0.0178
   2293 C           -6.1038   -11.1639    11.6019 C       6      r6     0.0025
   2294 C           -6.0029   -11.5182    13.9780 C       5      r5    -0.0031
   2295 H           -4.1025   -13.3304    13.1415 H       0      r0     0.0184
   2296 C           -3.0947   -13.6663    13.6404 C       5      r5    -0.0115
   2297 C           -2.1559   -12.5776    13.5749 C       5      r5     0.0053
   2298 C           -1.9953   -11.1985    12.9986 C       0      r0     0.0006
   2299 C           -1.7173   -10.6834    11.6959 C       0      r0    -0.0209
   2300 C           -0.9449   -13.1737    14.2301 C       5      r5    -0.0006
   2301 C           -0.2542   -12.4279    10.8007 C       0      r0    -0.0038
   2302 C            0.1772   -13.1167    13.2508 C       5      r5    -0.0066
   2303 C            0.5645   -12.3089    12.1793 C       0      r0    -0.0048
   2304 C            1.4021   -11.1155    12.0504 C       0      r0    -0.0185
   2305 H            1.7900   -11.8849    14.0498 H       0      r0     0.0222
   2306 C            2.2795   -12.4501    14.7971 C       0      r0    -0.0321
   2307 H            3.0367   -13.2821    14.4657 H       0      r0     0.0160
   2308 H            2.8559   -12.4443    11.8610 H       0      r0     0.0257
   2309 C            3.4869   -10.3357    12.0997 C       0      r0     0.0152
   2310 C            3.7038   -11.8660    11.8856 C       0      r0    -0.0642
   2311 H            3.8665   -11.5711    10.7184 H       0      r0     0.0194
   2312 H            4.5149   -12.1311    12.4743 H       0      r0     0.0210
   2313 H            4.7468   -12.1383    14.0654 H       0      r0     0.0153
   2314 H            5.5224   -13.6424    11.6396 H       0      r0     0.0114
   2315 C            5.4492   -12.5552   -14.9541 C       6      r6    -0.0156
   2316 H            6.2258   -12.2972    11.8147 H       0      r0     0.0091
   2317 C            6.4773   -11.0568    11.4919 C       0      r0    -0.0162
   2318 H            6.8156   -13.8749    13.1714 H       0      r0     0.0154
   2319 C            7.6362   -10.7162    12.1317 C       0      r0    -0.0090
   2320 C            7.7689   -11.2289    14.7425 C       0      r0     0.0002
   2321 C            8.3204   -11.4963    13.3781 C       0      r0     0.0056
   2322 C            9.4392   -12.0146    13.2545 C       0      r0     0.0226
   2323 C           10.3965   -12.7305    12.9683 C       0      r0     0.0049
   2324 C           10.7980   -13.6524    14.2281 C       0      r0    -0.0102
   2325 C           11.1811   -12.9318    11.6352 C       0      r0    -0.0090
   2326 H           11.8422   -11.9736    11.5868 H       0      r0     0.0252
   2327 C           12.5204   -13.6459    11.1528 C       7      r7    -0.0062
   2328 H           13.7475   -10.8081    13.4026 H       0      r0     0.0459
   2329 C           14.7686   -10.7379    13.2796 C       0      r0    -0.0193
   2330 C           15.1327   -12.2512    13.7652 C       0      r0    -0.0057
   2331 C          -14.8132    -7.0169    14.3936 C       4      r4     0.1935
   2332 C          -14.4514    -9.6924    13.5172 C       0      r0     0.0046
   2333 C          -13.9740    -7.0837    13.0469 C       4      r4    -0.0519
   2334 H          -13.2416    -8.0232    12.7260 H       0      r0     0.0134
   2335 C          -13.1883    -9.6356    14.2644 C       0      r0    -0.0300
   2336 H          -13.1801    -8.2522    10.8596 H       0      r0     0.0176
   2337 H          -12.4553    -8.7156    14.1060 H       0      r0     0.0125
   2338 H          -12.4900    -5.2200    12.8021 H       0      r0     0.0237
   2339 H          -10.8805    -8.5171    12.6929 H       0      r0     0.0151
   2340 C           -9.9932    -7.8384    12.7566 C       0      r0    -0.0163
   2341 C          -10.0369    -7.6567    11.2950 C       6      r6     0.0003
   2342 C           -9.4252    -8.0749    14.1265 C       7      r7    -0.0027
   2343 C           -8.5604    -6.9384    14.5258 C       7      r7    -0.0011
   2344 C           -8.0035    -6.1147    11.6084 C       0      r0     0.0019
   2345 C           -6.9442    -7.0670    11.7593 C       0      r0    -0.0081
   2346 C           -6.5373    -9.1125    13.1431 C       6      r6    -0.0010
   2347 C           -6.3515    -8.2243    14.5322 C       0      r0    -0.0393
   2348 C           -6.2731    -8.3723    11.9689 C       6      r6    -0.0063
   2349 C           -5.7781    -8.9485    10.6999 C       6      r6     0.0038
   2350 H           -5.5616    -7.7430    14.2309 H       0      r0     0.0226
   2351 C           -3.0550    -7.5180    13.7589 C       0      r0     0.0276
   2352 C           -3.2257    -6.5141    12.6217 C       0      r0    -0.0293
   2353 C           -2.3030    -8.7711    13.8420 C       0      r0     0.0107
   2354 H           -1.6039    -9.5942    11.6047 H       0      r0     0.0177
   2355 C           -1.8430   -10.0597    13.9809 C       0      r0     0.0018
   2356 C           -1.9911    -6.2117    12.0098 C       6      r6     0.0035
   2357 C           -0.8178    -7.1258    12.1487 C       6      r6     0.0009
   2358 C           -0.4958    -9.7459    14.5259 C       0      r0    -0.0233
   2359 C           -0.2425    -7.7588    10.8805 C       6      r6     0.0038
   2360 C            0.0329    -8.4124    14.5620 C       0      r0     0.0278
   2361 C            0.0205    -7.9170    13.1163 C       5      r5     0.0054
   2362 C            0.4585    -8.7529    11.0886 C       5      r5    -0.0001
   2363 C            1.0400    -8.6952    12.3727 C       5      r5     0.0174
   2364 C            2.1167    -9.9049    12.2149 C       0      r0     0.0099
   2365 H            2.5683    -9.5256   -14.8521 H       0      r0     0.0325
   2366 C            3.8459    -9.0876    11.5166 C       6      r6    -0.0390
   2367 O            4.6793    -7.8832    13.8198 O       0      r0    -0.5823
   2368 C            4.8380    -8.3593    12.4256 C       6      r6     0.2789
   2369 H            5.5827    -7.4189    14.0487 H       0      r0     0.2677
   2370 C            5.9059    -8.0612    11.6515 C       6      r6    -0.0755
   2371 C            7.0581    -7.1757    12.0079 C       0      r0     0.0188
   2372 C            8.1260    -6.3814    12.1710 C       0      r0    -0.0286
   2373 H            7.9133    -9.8279    11.5580 H       0      r0     0.0264
   2374 H            9.0721    -6.6736    12.3799 H       0      r0     0.0379
   2375 H           10.8976    -9.6207    11.4578 H       0      r0     0.0796
   2376 O           10.7300    -9.1409    13.9905 O       0      r0    -0.5209
   2377 C           10.6539    -7.9792    14.3466 C       0      r0     0.3738
   2378 C           10.6140    -6.6367    14.7906 C       5      r5    -0.1123
   2379 H           12.6443    -6.0103    13.8697 H       0      r0     0.0983
   2380 H           15.1296    -3.0020    11.0652 H       0      r0     0.0274
   2381 C          -15.0441    -2.7744    14.6379 C       7      r7    -0.0511
   2382 C          -14.4114    -5.8943    12.4024 C       4      r4     0.1722
   2383 C          -14.0077    -5.2762    11.2884 C       0      r0    -0.0438
   2384 C          -11.3281    -5.0831    12.7781 C       0      r0    -0.0115
   2385 C          -11.0561    -5.8622    14.2280 C       7      r7     0.0118
   2386 H          -10.9237    -2.5905    13.0998 H       0      r0     0.2044
   2387 C          -10.7452    -4.8727    11.6758 C       0      r0    -0.0018
   2388 C           -9.6579    -2.0389    14.5773 C       5      r5     0.2366
   2389 C           -9.6725    -5.8150    14.5758 C       7      r7    -0.0001
   2390 C           -8.6709    -2.9442    14.4935 C       5      r5    -0.0904
   2391 H           -9.0616    -3.8481    13.9054 H       0      r0     0.0364
   2392 C           -8.2548    -4.5691    11.1154 C       0      r0    -0.0148
   2393 C           -7.4975    -3.6370    11.6913 C       0      r0    -0.0055
   2394 C           -6.7118    -2.8928    12.3065 C       0      r0    -0.0031
   2395 H           -5.9874    -3.6979    14.6489 H       0      r0     0.0232
   2396 C           -6.3305    -2.6496    14.5632 C       6      r6    -0.0200
   2397 C           -5.8801    -2.2184    13.0994 C       0      r0     0.0009
   2398 H           -4.3103    -5.4679    11.2703 H       0      r0     0.0166
   2399 H           -4.0939    -5.9107    12.7695 H       0      r0     0.0177
   2400 H           -1.9577    -3.3482    13.7372 H       0      r0     0.0199
   2401 C           -1.1728    -2.7326    14.1962 C       0      r0    -0.0279
   2402 C            0.0074    -3.6117    14.5248 C       0      r0     0.0016
   2403 C            1.2316    -3.6721    13.6770 C       0      r0     0.0007
   2404 C            1.4830    -2.5346    12.8161 C       0      r0     0.0264
   2405 C            1.5669    -2.7637    11.0779 C       0      r0    -0.0072
   2406 H            1.3567    -4.8478    13.5167 H       0      r0     0.0527
   2407 H            2.7374    -2.5459    11.0775 H       0      r0     0.0572
   2408 H            4.3812    -3.3529    12.0367 H       0      r0     0.0984
   2409 C            5.0642    -2.6019    11.6844 C       0      r0     0.0065
   2410 C            6.4016    -3.0866    11.0925 C       6      r6     0.0301
   2411 C            6.5687    -4.4158    10.9708 C       6      r6    -0.0569
   2412 C            7.6984    -2.1590    11.2585 C       6      r6    -0.0079
   2413 C            7.9239    -5.0248    11.4530 C       6      r6     0.0119
   2414 C            8.9262    -4.0708    11.5452 C       6      r6    -0.0251
   2415 C            9.0280    -2.5684    11.6598 C       6      r6    -0.0028
   2416 C            9.5519    -5.6463   -14.9039 C       5      r5     0.0405
   2417 H            9.8150    -4.3252    12.0630 H       0      r0     0.0283
   2418 C           11.2793    -4.5299    14.3347 C       5      r5     0.0105
   2419 C           11.6872    -5.8694    14.2216 C       5      r5    -0.0002
   2420 C           12.2270    -3.3471    14.4698 C       0      r0    -0.0403
   2421 H           12.8624    -3.6056    13.7539 H       0      r0     0.0525
   2422 O           14.7178    -5.7871    13.7145 O       4      r4    -0.4518
   2423 H          -14.8572    -3.6861    14.2655 H       0      r0     0.0779
   2424 C          -14.9987    -1.9400    11.1696 C       0      r0    -0.0138
   2425 C          -15.1261     1.1357    12.7390 C       6      r6    -0.0022
   2426 C          -14.4752    -1.5789    13.8208 C       6      r6     0.0071
   2427 H          -13.1340     1.4680    10.4434 H       0      r0     0.0202
   2428 C          -13.6591     0.4898    12.7614 C       6      r6    -0.0121
   2429 C          -13.3539    -0.5348    13.8046 C       6      r6     0.0580
   2430 C          -13.0273     0.5643    11.3612 C       0      r0    -0.0126
   2431 H          -12.0967     1.7233    12.3344 H       0      r0     0.0252
   2432 O          -11.1394    -2.0570    14.0812 O       0      r0    -0.5532
   2433 H          -10.5925    -0.2187    12.3992 H       0      r0     0.0437
   2434 H          -10.9295     1.2686    13.5341 H       0      r0     0.0266
   2435 C          -10.3367     0.8150    11.8448 C       6      r6    -0.0244
   2436 C           -9.2344     2.0252    12.0203 C       6      r6    -0.0119
   2437 H           -8.0965     2.2458    12.4119 H       0      r0     0.0164
   2438 C           -5.5607    -0.3202    11.3056 C       7      r7    -0.0014
   2439 C           -5.1903    -0.8238    12.7797 C       0      r0    -0.0015
   2440 C           -4.6423    -0.1388    13.5634 C       0      r0    -0.0066
   2441 H           -4.6325     1.6438    10.9551 H       0      r0     0.0186
   2442 C           -4.4246     0.6033    10.9103 C       6      r6    -0.0112
   2443 C           -4.0542     0.7513    14.1092 C       0      r0    -0.0112
   2444 C           -3.3429     1.7582    14.6465 C       0      r0    -0.0254
   2445 C           -3.0738     0.2793    11.6012 C       6      r6    -0.0148
   2446 H           -2.9406     0.3643    12.7393 H       0      r0     0.0193
   2447 H           -1.7501     0.1945    14.6211 H       0      r0     0.0218
   2448 H           -0.7524     0.2016    10.6543 H       0      r0     0.0127
   2449 C           -0.7205    -1.5332    14.5589 C       0      r0     0.0050
   2450 C           -0.8126    -0.1310    14.9590 C       0      r0    -0.0263
   2451 C            0.4593     0.5813    14.9002 C       0      r0     0.0052
   2452 H            1.9555     2.1187    11.5467 H       0      r0     0.0314
   2453 O            4.1036     0.1639    13.0486 O       0      r0    -0.4634
   2454 C            5.2830     0.4348    11.0890 C       6      r6    -0.0040
   2455 C            5.4137     0.2546    12.7054 C       6      r6     0.2772
   2456 C            6.6284     0.5418    13.3362 C       6      r6    -0.0640
   2457 C            6.9101     1.1156    14.9814 C       6      r6     0.0148
   2458 C            7.8006     0.8729    12.4074 C       6      r6     0.0036
   2459 C            7.4848     1.3708    11.0500 C       6      r6    -0.0204
   2460 C            8.9849     1.0408    13.1874 C       6      r6    -0.0007
   2461 C            9.2233     0.7989    14.7039 C       6      r6    -0.0010
   2462 C           10.3571    -1.9516    11.6362 C       0      r0    -0.0087
   2463 C           10.9702     1.7613    12.1522 C       0      r0    -0.0008
   2464 C           10.9955    -1.8980    12.7188 C       0      r0     0.0017
   2465 H           12.2932    -1.1572    14.0689 H       0      r0     0.0176
   2466 C           11.6029    -1.9565    13.8147 C       0      r0    -0.0226
   2467 C           12.1203     1.9949    11.0447 C       0      r0    -0.0016
   2468 C           12.5220     0.3852    10.9370 C       0      r0    -0.0018
   2469 C           13.4890     0.1373    11.8831 C       0      r0    -0.0033
   2470 C           14.3625    -0.1525    12.7459 C       6      r6    -0.0090
   2471 C          -15.0453    -1.4154    12.5366 C       6      r6     0.0025
   2472 C          -14.9060     2.3644    13.5076 C       0      r0    -0.0030
   2473 H          -14.6033     4.8789    14.6478 H       0      r0     0.0195
   2474 C          -13.5424     3.0003    13.6674 C       0      r0    -0.0031
   2475 C          -13.1130     3.2440   -14.9832 C       5      r5    -0.0047
   2476 H          -12.5183     4.6085    12.1147 H       0      r0     0.0206
   2477 C          -12.4053     2.5881    12.7029 C       0      r0    -0.0197
   2478 C          -12.4080     3.6214    11.8688 C       0      r0    -0.0185
   2479 C          -11.0089     6.0591    14.1487 C       6      r6    -0.0055
   2480 C          -10.4548     2.2564    14.1669 C       5      r5    -0.0198
   2481 C           -9.9048     3.3877    12.1659 C       0      r0     0.0012
   2482 C           -9.9987     4.9621    14.3025 C       6      r6     0.0140
   2483 C          -10.0470     3.6015    13.5702 C       5      r5    -0.0022
   2484 C           -9.3268     4.4036    11.2296 C       0      r0    -0.0200
   2485 C           -8.4947     5.2559    14.8365 C       0      r0    -0.0962
   2486 H           -8.2682     4.6268    11.4566 H       0      r0     0.0202
   2487 C           -7.1654     4.4272    14.6443 C       0      r0    -0.0304
   2488 H           -7.5803     4.4036    13.5149 H       0      r0     0.0197
   2489 H           -6.3109     5.5043    11.0841 H       0      r0     0.0149
   2490 H           -4.7426     3.4316    12.5448 H       0      r0     0.0231
   2491 H           -4.4707     5.0486    11.4844 H       0      r0     0.0227
   2492 C           -4.3741     3.8931    11.6100 C       0      r0    -0.0548
   2493 C           -2.7150     3.7815    11.7890 C       5      r5    -0.0002
   2494 C           -2.6381     2.9252    14.1762 C       0      r0    -0.0003
   2495 C           -2.7192     4.2549    14.8361 C       0      r0    -0.0174
   2496 C           -2.5258     5.5152    14.0917 C       3      r3     0.0008
   2497 C           -2.0275     2.9465    12.7690 C       5      r5    -0.0032
   2498 C           -1.8796     4.2085    10.9384 C       5      r5    -0.0009
   2499 C           -0.6165     3.2902    12.6458 C       5      r5    -0.0199
   2500 C           -0.5223     3.9100    11.4583 C       5      r5    -0.0221
   2501 H            0.1522     2.7487    13.1514 H       0      r0     0.0228
   2502 H            1.9956     4.5005    14.5333 H       0      r0     0.0234
   2503 C            2.1969     3.7095    13.7554 C       0      r0    -0.0216
   2504 C            2.6905     4.4822    12.6295 C       0      r0    -0.0006
   2505 C            2.8225     2.4748    11.0371 C       5      r5    -0.0014
   2506 C            2.9456     2.5395    13.9922 C       0      r0    -0.0051
   2507 C            3.1732     5.8745    12.9422 C       0      r0    -0.0246
   2508 C            3.3319     3.7059    11.3470 C       5      r5    -0.0023
   2509 H            3.8120     2.1405    13.5656 H       0      r0     0.0783
   2510 C            4.4256     5.9468    14.7931 C       0      r0    -0.0069
   2511 C            4.5270     5.8470    13.4206 C       0      r0     0.0022
   2512 C            5.7850     5.7661    12.6355 C       0      r0    -0.0064
   2513 H            6.2723     5.1960    10.4744 H       0      r0     0.0216
   2514 H            7.2044     3.3642    13.6270 H       0      r0     0.0238
   2515 H            7.1806     3.4228    11.7048 H       0      r0     0.0203
   2516 C            7.2057     5.4661    13.0435 C       6      r6     0.0028
   2517 C            7.6754     3.9340    12.7824 C       6      r6    -0.0307
   2518 C            9.1800     3.6376    12.7281 C       6      r6     0.0033
   2519 C            9.8923     5.0881    12.8519 C       6      r6     0.0013
   2520 C            9.6829     2.1058    12.4111 C       0      r0    -0.0061
   2521 C            9.7679     4.4899    11.5811 C       7      r7    -0.0072
   2522 C           13.5534     5.4340    14.2622 C       7      r7     0.0012
   2523 C           13.4381     3.9850    14.7587 C       7      r7    -0.0011
   2524 C           14.3460     3.2171    14.2322 C       0      r0    -0.0071
   2525 C           14.9120     5.7137    14.0599 C       0      r0    -0.0154
   2526 C           15.0205     8.6842    10.7918 C       0      r0    -0.0022
   2527 C          -14.8139     6.9813    13.5108 C       0      r0    -0.0198
   2528 H          -13.8811     7.2046    12.9880 H       0      r0     0.0198
   2529 C          -13.3121     8.2291    14.7713 C       0      r0    -0.0075
   2530 C          -12.3440     8.0626    14.8126 C       0      r0    -0.0018
   2531 C          -11.1561     6.3328    12.8073 C       0      r0    -0.0034
   2532 C          -10.8383     6.9984    11.5424 C       7      r7     0.0023
   2533 C           -9.8990     8.0472    11.6289 C       7      r7     0.0024
   2534 C           -9.7096     9.1631    12.3555 C       0      r0     0.0036
   2535 C           -7.8438     6.4951    14.5729 C       0      r0     0.3536
   2536 H           -7.7757     8.7191    12.5764 H       0      r0     0.0832
   2537 C           -7.2736     9.6334    12.1478 C       0      r0    -0.0421
   2538 O           -7.3655     7.6204    14.3758 O       0      r0    -0.5546
   2539 H           -6.3665     9.4920    12.6790 H       0      r0     0.0464
   2540 C           -6.0572     6.4798    11.5573 C       0      r0    -0.0147
   2541 C           -5.2513     9.7810    10.7171 C       5      r5    -0.0032
   2542 C           -5.2717     6.9007    12.6127 C       0      r0     0.0331
   2543 H           -5.1996     7.9344    14.1674 H       0      r0     0.0823
   2544 C           -4.6527     7.3055    13.5852 C       0      r0    -0.0264
   2545 C           -3.2125     6.7595    13.8949 C       3      r3     0.0071
   2546 C           -2.0846     6.9307    14.7593 C       3      r3    -0.0061
   2547 C            1.6215    10.0610    13.7145 C       0      r0    -0.0228
   2548 H            1.7852    10.1644    10.8215 H       0      r0     0.0217
   2549 H            2.2349     9.2317    13.2661 H       0      r0     0.0167
   2550 H            3.2613     6.4868    11.9890 H       0      r0     0.0194
   2551 H            4.9539     8.9045    12.2398 H       0      r0     0.0122
   2552 C            5.2151     8.0823    11.2202 C       0      r0    -0.0140
   2553 C            5.7665     6.8072    11.6243 C       0      r0    -0.0059
   2554 H            6.0010     8.6778    13.6550 H       0      r0     0.0125
   2555 C            6.7978     9.0685    14.4680 C       0      r0    -0.0079
   2556 H            7.6327     7.5009    13.2987 H       0      r0     0.0245
   2557 H            8.3369     9.0144    12.3074 H       0      r0     0.0349
   2558 C            8.1305     6.5649    13.1206 C       6      r6    -0.0192
   2559 C            8.3919     8.7515    11.2532 C       6      r6    -0.0226
   2560 C            9.5333     7.9912    11.2702 C       6      r6     0.0154
   2561 C            9.6423     6.4181    13.3019 C       6      r6     0.0076
   2562 O           10.1896    10.0392    14.4041 O       3      r3    -0.4444
   2563 C           10.2060     7.5963    12.4412 C       7      r7    -0.0457
   2564 C           10.1774     8.6924    13.3506 C       3      r3     0.0992
   2565 C           11.3149     9.1730    14.0308 C       3      r3     0.1759
   2566 C           12.8411     9.6058    13.6277 C       0      r0    -0.0315
   2567 H           13.0698     8.2583    11.0184 H       0      r0     0.0174
   2568 C           13.7520     8.5521    13.1734 C       0      r0     0.0005
   2569 C           13.9481     8.4743    11.5614 C       0      r0    -0.0206
   2570 C           14.6196     7.9314    14.1111 C       0      r0     0.0032
   2571 H          -14.4312    10.2719    14.1894 H       0      r0     0.0210
   2572 C          -14.1588    11.4956    14.3294 C       0      r0    -0.0162
   2573 C          -12.9885    12.1287    13.4054 C       0      r0    -0.0047
   2574 C          -13.2253    13.3853    13.1302 C       0      r0    -0.0001
   2575 H          -13.0339    11.2248    11.4341 H       0      r0     0.0260
   2576 C          -11.5555    11.8507    13.6598 C       0      r0    -0.0014
   2577 C          -11.0477    12.9171    11.1223 C       0      r0    -0.0057
   2578 C          -11.1999    12.6677    14.6007 C       0      r0    -0.0035
   2579 C          -10.7945    12.1286    12.3705 C       0      r0     0.0042
   2580 C           -9.4141    10.2924    13.2021 C       0      r0     0.0058
   2581 C           -9.5377    11.7947    12.9041 C       0      r0    -0.0209
   2582 H           -8.5814    12.1871    12.6870 H       0      r0     0.0211
   2583 H           -6.4866    10.7321   -14.9904 H       0      r0     0.0286
   2584 H           -5.2327    11.8536    13.6014 H       0      r0     0.0196
   2585 C           -5.4021    11.6715    12.4003 C       0      r0    -0.0209
   2586 C           -4.2295    11.3623    11.8213 C       0      r0    -0.0007
   2587 H           -3.2846    12.9896   -14.9048 H       0      r0     0.0177
   2588 C           -2.9820    10.8223    14.2248 C       5      r5    -0.0069
   2589 C           -3.0476    11.4717    12.9593 C       5      r5    -0.0048
   2590 C           -2.6630    13.8178    14.5641 C       5      r5    -0.0180
   2591 C           -1.6590    11.4883    12.5024 C       6      r6    -0.0015
   2592 C           -1.6396    10.6080    14.5995 C       5      r5     0.0032
   2593 C           -1.2064    13.8779    14.8259 C       5      r5    -0.0035
   2594 C           -1.0990    11.6301    11.1667 C       6      r6    -0.0019
   2595 C           -1.0404    10.3880    13.2871 C       6      r6    -0.0036
   2596 C           -0.1149    13.1104    14.3126 C       5      r5    -0.0033
   2597 C            0.3096    11.1169    10.8751 C       6      r6     0.0035
   2598 C            0.5420    10.5284    12.9802 C       6      r6     0.0099
   2599 C            0.7412    13.9513    13.4985 C       5      r5    -0.0018
   2600 H            0.9915    13.8125    11.3164 H       0      r0     0.0238
   2601 C            1.1063    10.3341    11.6911 C       6      r6    -0.0207
   2602 C            1.4551    13.4392    12.3667 C       0      r0    -0.0115
   2603 C            1.9777    10.4689    14.9329 C       0      r0     0.0052
   2604 C            2.8558    13.0598    12.3569 C       0      r0    -0.0141
   2605 H            3.2485    13.8189    13.3538 H       0      r0     0.0101
   2606 C            3.7513    13.2355    11.1962 C       6      r6    -0.0045
   2607 H            4.8161    10.8986    11.0144 H       0      r0     0.0207
   2608 C            5.3519    13.6887    11.2215 C       6      r6    -0.0373
   2609 H            5.6325    13.0046    11.9658 H       0      r0     0.0219
   2610 C            6.0637    13.2835    14.8667 C       0      r0    -0.0101
   2611 C            6.8440    12.8766    13.8710 C       0      r0    -0.0053
   2612 C            7.0365    10.3228    14.2128 C       0      r0     0.0249
   2613 C            7.7470    13.8461    13.0062 C       0      r0    -0.0190
   2614 C            7.3337    11.4722    13.5609 C       0      r0    -0.0200
   2615 C            8.5623    13.4595    12.2305 C       0      r0     0.0015
   2616 H            8.3238    11.6867    13.1216 H       0      r0     0.0513
   2617 C            9.5811    12.9753    11.7395 C       5      r5    -0.0007
   2618 C           10.5079    13.5026    14.8411 C       0      r0     0.0089
   2619 C           10.9080    12.4759    12.3464 C       5      r5     0.0153
   2620 C           11.2614    12.8686    13.7481 C       0      r0     0.0151
   2621 C           11.6495    11.9452    11.3217 C       5      r5    -0.0026
   2622 C           12.3067    11.7486    14.0923 C       0      r0     0.0262
   2623 C           13.0333    12.3543    11.2634 C       7      r7    -0.0171
   2624 C           12.8883    10.8509    14.4004 C       0      r0     0.0183
   2625 C           13.4529    13.8495    11.7278 C       7      r7    -0.0022
   2626 H           13.3083    11.5233    11.9869 H       0      r0     0.0221
   2627 C           14.6445    13.9651    12.4759 C       0      r0    -0.0077
   2628 H          -15.0282    11.1480    11.8469 H       0      r0     0.0183
   2629 B           15.1501   -14.2361    15.0028 B       8     BOX     0.0000
   2630 B          -15.1501   -14.2361    15.0028 B       8     BOX     0.0000
   2631 B          -15.1501    14.2361    15.0028 B       8     BOX     0.0000
   2632 B           15.1501    14.2361    15.0028 B       8     BOX     0.0000
   2633 B           15.1501   -14.2361   -15.0028 B       8     BOX     0.0000
   2634 B          -15.1501   -14.2361   -15.0028 B       8     BOX     0.0000
   2635 B          -15.1501    14.2361   -15.0028 B       8     BOX     0.0000
   2636 B           15.1501    14.2361   -15.0028 B       8     BOX     0.0000
@<TRIPOS>BOND
     1      1    375      1
     2      1    379      1
     3      2      3      1
     4      2      5      1
     5      2     55      1
     6      3      4      1
     7      3      6      1
     8      7      9      1
     9      7    384      1
    10      7    387      1
    11      8     11      1
    12     10     11      1
    13     10     69      1
    14     11     12      1
    15     12     13      1
    16     13     14      1
    17     13     15      1
    18     14     16      1
    19     15     17      1
    20     17     18      1
    21     17     19      1
    22     20     22      1
    23     20     83      1
    24     21    344      1
    25     22     23      1
    26     22     24      1
    27     23     26      1
    28     24     27      1
    29     24     86      1
    30     28    403      1
    31     29     30      1
    32     30     32      1
    33     31     32      1
    34     31     34      1
    35     31    403      1
    36     32     33      1
    37     33     35      1
    38     34     36      1
    39     35   2315      1
    40     36    407      1
    41     36    463      1
    42     37     39      1
    43     37   2315      1
    44     38     39      1
    45     39     42      1
    46     40     98      1
    47     41    363      1
    48     42     43      1
    49     42     44      1
    50     44     45      1
    51     45    420      1
    52     46     48      1
    53     46    103      1
    54     47     48      1
    55     48     51      1
    56     49     50      1
    57     49    104      1
    58     49    425      1
    59     50     51      1
    60     50     52      1
    61     51     53      1
    62     52     54      1
    63     56    108      1
    64     57     59      1
    65     58     59      1
    66     58    428      1
    67     58    433      1
    68     59     61      1
    69     60     62      1
    70     61     63      1
    71     62     63      1
    72     63     66      1
    73     65     67      1
    74     66     69      1
    75     67     68      1
    76     67     70      1
    77     68    117      1
    78     68    121      1
    79     69     70      1
    80     70     72      1
    81     71     74      1
    82     73     76      1
    83     74     77      1
    84     74    121      1
    85     76    447      1
    86     76    449      1
    87     77     80      1
    88     77    127      1
    89     78     81      1
    90     79     80      1
    91     80     82      1
    92     81     82      1
    93     81     83      1
    94     82     84      1
    95     83     85      1
    96     84     85      1
    97     85     86      1
    98     86     89      1
    99     87     89      1
   100     88     89      1
   101     88     91      1
   102     89     90      1
   103     91     92      1
   104     91   2365      1
   105     93    458      1
   106     94     96      1
   107     94    139      1
   108     94    465      1
   109     95     96      1
   110     95     97      1
   111     95    140      1
   112     96     99      1
   113     97   2416      1
   114     98     99      1
   115     99    100      1
   116    101    145      1
   117    102    103      1
   118    103    104      1
   119    104    475      1
   120    105    106      1
   121    105    151      1
   122    105    476      1
   123    106    107      1
   124    106    153      1
   125    107    108      1
   126    109    111      1
   127    110    112      1
   128    110    113      1
   129    112    162      1
   130    113    114      1
   131    113    115      1
   132    115    116      1
   133    115    162      1
   134    116    118      1
   135    116    165      1
   136    117    119      1
   137    117    436      1
   138    118    119      1
   139    118    489      1
   140    119    120      1
   141    120    121      1
   142    120    124      1
   143    122    171      1
   144    123    124      1
   145    124    125      1
   146    125    126      1
   147    125    128      1
   148    126    127      1
   149    126    498      1
   150    127    449      1
   151    128    129      1
   152    128    175      1
   153    129    130      1
   154    129    131      1
   155    131    179      1
   156    132    133      1
   157    133    134      1
   158    133    135      1
   159    135    136      1
   160    136    137      1
   161    137    186      1
   162    137    562      1
   163    138    139      1
   164    138    517      1
   165    139    140      1
   166    141    142      1
   167    141    190      1
   168    142    143      1
   169    144    145      1
   170    145    149      1
   171    145    523      1
   172    146    147      1
   173    146   2416      1
   174    147    148      1
   175    147    149      1
   176    149    150      1
   177    150    151      1
   178    150    153      1
   179    151    527      1
   180    153    154      1
   181    154    157      1
   182    158    159      1
   183    158    534      1
   184    159    536      1
   185    160    161      1
   186    161    163      1
   187    162    163      1
   188    163    164      1
   189    164    165      1
   190    164    166      1
   191    165    169      1
   192    166    168      1
   193    166    170      1
   194    167    169      1
   195    167    210      1
   196    167    540      1
   197    168    213      1
   198    169    539      1
   199    170    171      1
   200    171    173      1
   201    172    173      1
   202    173    174      1
   203    174    175      1
   204    174    176      1
   205    178    224      1
   206    179    180      1
   207    180    181      1
   208    180    552      1
   209    182    184      1
   210    182    185      1
   211    183    184      1
   212    183    232      1
   213    183    558      1
   214    184    186      1
   215    185    233      1
   216    186    187      1
   217    187    190      1
   218    188    189      1
   219    188    562      1
   220    188    565      1
   221    191    235      1
   222    192    193      1
   223    192    567      1
   224    193    194      1
   225    194    195      1
   226    196    251      1
   227    197    198      1
   228    198    200      1
   229    198    255      1
   230    199    201      1
   231    202    203      1
   232    203    204      1
   233    203    582      1
   234    204    205      1
   235    205    206      1
   236    205   2475      1
   237    206    209      1
   238    206    265      1
   239    207    209      1
   240    207   2475      1
   241    208    210      1
   242    211    212      1
   243    211    268      1
   244    211    590      1
   245    212    214      1
   246    212    215      1
   247    213    216      1
   248    214    217      1
   249    214    592      1
   250    215    277      1
   251    216    218      1
   252    217    218      1
   253    218    220      1
   254    219   2487      1
   255    221    598      1
   256    222    224      1
   257    223    224      1
   258    224    226      1
   259    226    227      1
   260    226    605      1
   261    227    228      1
   262    228    230      1
   263    229    230      1
   264    229    289      1
   265    230    231      1
   266    232    233      1
   267    232    234      1
   268    233    235      1
   269    234    237      1
   270    234    612      1
   271    235    237      1
   272    236    237      1
   273    236    238      1
   274    237    239      1
   275    238    299      1
   276    238    302      1
   277    240    244      1
   278    241    242      1
   279    242    244      1
   280    242    245      1
   281    243    244      1
   282    243    619      1
   283    243    621      1
   284    244    246      1
   285    247   2561      1
   286    248    253      1
   287    248    308      1
   288    248    624      1
   289    249    623      1
   290    249    624      1
   291    249    630      1
   292    250    252      1
   293    250    254      1
   294    251    252      1
   295    251    255      1
   296    254    311      1
   297    255    257      1
   298    256    258      1
   299    256    630      1
   300    256    635      1
   301    257    258      1
   302    258    313      1
   303    259    639      1
   304    260    262      1
   305    261   2529      1
   306    262    263      1
   307    263    264      1
   308    263    325      1
   309    264    267      1
   310    264    640      1
   311    265    266      1
   312    265    268      1
   313    266    270      1
   314    267    268      1
   315    267    269      1
   316    267    644      1
   317    268    271      1
   318    270    272      1
   319    272    274      1
   320    272    275      1
   321    273    275      1
   322    273    331      1
   323    273    647      1
   324    275    276      1
   325    276    277      1
   326    276    278      1
   327    277    279      1
   328    278    280      1
   329    278    338      1
   330    279    651      1
   331    280    281      1
   332    280    652      1
   333    282    284      1
   334    282    343      1
   335    283    284      1
   336    284    286      1
   337    285    658      1
   338    286    287      1
   339    287    289      1
   340    288    347      1
   341    289    291      1
   342    290    292      1
   343    290    351      1
   344    290    663      1
   345    292    664      1
   346    292    666      1
   347    293    295      1
   348    293    296      1
   349    294    297      1
   350    295    298      1
   351    295    355      1
   352    297    298      1
   353    297    300      1
   354    297    669      1
   355    298    301      1
   356    299    304      1
   357    300    302      1
   358    300    674      1
   359    301    303      1
   360    301    360      1
   361    302    617      1
   362    303    304      1
   363    305    306      1
   364    305    364      1
   365    305    676      1
   366    306    308      1
   367    309    310      1
   368    310    311      1
   369    310    312      1
   370    311    313      1
   371    312    314      1
   372    312    373      1
   373    313    315      1
   374    314    315      1
   375    314    316      1
   376    317    319      1
   377    318    319      1
   378    319    321      1
   379    320    321      1
   380    321    323      1
   381    323    326      1
   382    324    325      1
   383    325    328      1
   384    326    327      1
   385    326    330      1
   386    327    332      1
   387    328    331      1
   388    329    330      1
   389    329    691      1
   390    329    693      1
   391    330    333      1
   392    331    693      1
   393    332    333      1
   394    332    334      1
   395    333    335      1
   396    335    336      1
   397    335    337      1
   398    336    338      1
   399    339    340      1
   400    339    343      1
   401    339   2583      1
   402    340    341      1
   403    345    347      1
   404    346    348      1
   405    346    663      1
   406    346    706      1
   407    347    350      1
   408    348    349      1
   409    348    351      1
   410    350    353      1
   411    351    355      1
   412    352    354      1
   413    353    354      1
   414    354    358      1
   415    355    356      1
   416    356    358      1
   417    356    711      1
   418    358    359      1
   419    359    712      1
   420    362    363      1
   421    364    366      1
   422    364    720      1
   423    365    367      1
   424    366    367      1
   425    366    369      1
   426    367    368      1
   427    368    370      1
   428    369    371      1
   429    369    730      1
   430    370    372      1
   431    371    372      1
   432    371    373      1
   433    372    374      1
   434    374    732      1
   435    375    378      1
   436    377    739      1
   437    378    380      1
   438    378    429      1
   439    379    381      1
   440    380    381      1
   441    380    382      1
   442    381    383      1
   443    382    384      1
   444    382    435      1
   445    385    386      1
   446    385    387      1
   447    385    442      1
   448    387    389      1
   449    388    752      1
   450    389    390      1
   451    389    391      1
   452    390    392      1
   453    390    393      1
   454    391    394      1
   455    392    448      1
   456    393    395      1
   457    393    758      1
   458    395    763      1
   459    396    451      1
   460    397    398      1
   461    397    451      1
   462    398    400      1
   463    398    454      1
   464    400    401      1
   465    400    769      1
   466    401    402      1
   467    402    403      1
   468    404    405      1
   469    405    771      1
   470    405    776      1
   471    406    407      1
   472    407    411      1
   473    408    410      1
   474    408    460      1
   475    408    776      1
   476    409    410      1
   477    410    411      1
   478    410    413      1
   479    411    414      1
   480    412    414      1
   481    412    463      1
   482    412    467      1
   483    413    415      1
   484    413    781      1
   485    414    416      1
   486    415    419      1
   487    415    785      1
   488    416    417      1
   489    416    419      1
   490    417    420      1
   491    417    723      1
   492    418    725      1
   493    419    421      1
   494    419    471      1
   495    422    423      1
   496    422    473      1
   497    422    793      1
   498    423    424      1
   499    423    425      1
   500    426    478      1
   501    427    429      1
   502    429    432      1
   503    430    434      1
   504    430    480      1
   505    430    484      1
   506    431    432      1
   507    432    435      1
   508    433    436      1
   509    433    484      1
   510    434    437      1
   511    434    802      1
   512    435    440      1
   513    436    439      1
   514    437    438      1
   515    437    487      1
   516    438    440      1
   517    438    805      1
   518    439    441      1
   519    440    441      1
   520    440    442      1
   521    441    443      1
   522    442    747      1
   523    444    447      1
   524    445    446      1
   525    446    494      1
   526    446    495      1
   527    447    448      1
   528    448    450      1
   529    449    495      1
   530    451    452      1
   531    452    453      1
   532    453    503      1
   533    454    821      1
   534    455    456      1
   535    456    511      1
   536    456    824      1
   537    457    829      1
   538    458    462      1
   539    458    463      1
   540    459    518      1
   541    460    461      1
   542    460    829      1
   543    461    462      1
   544    462    464      1
   545    464    465      1
   546    465    521      1
   547    466    467      1
   548    467    469      1
   549    468    470      1
   550    469    470      1
   551    469    471      1
   552    470    472      1
   553    471    473      1
   554    473    474      1
   555    473    791      1
   556    475    476      1
   557    476    478      1
   558    477    478      1
   559    479    480      1
   560    479    481      1
   561    481    482      1
   562    481    483      1
   563    483    484      1
   564    483    485      1
   565    486    488      1
   566    487    488      1
   567    488    491      1
   568    489    490      1
   569    489    539      1
   570    490    491      1
   571    490    544      1
   572    491    492      1
   573    492    493      1
   574    492    854      1
   575    493    544      1
   576    493    918      1
   577    494    497      1
   578    494    854      1
   579    495    496      1
   580    496    498      1
   581    496    500      1
   582    497    500      1
   583    498    499      1
   584    500    502      1
   585    501    502      1
   586    501    547      1
   587    501    859      1
   588    502    504      1
   589    503    505      1
   590    504    505      1
   591    504    507      1
   592    505    506      1
   593    507    508      1
   594    507    863      1
   595    508    509      1
   596    508    555      1
   597    510    511      1
   598    511    512      1
   599    512    513      1
   600    512    871      1
   601    513    514      1
   602    513    875      1
   603    514    515      1
   604    514    564      1
   605    515    517      1
   606    515    562      1
   607    516    518      1
   608    517    518      1
   609    518    519      1
   610    519    520      1
   611    519    521      1
   612    520    522      1
   613    521    523      1
   614    522    569      1
   615    522    884      1
   616    523    524      1
   617    524    525      1
   618    524    527      1
   619    525    526      1
   620    525    571      1
   621    526    528      1
   622    526    529      1
   623    527    529      1
   624    528    575      1
   625    528    893      1
   626    529    530      1
   627    529    531      1
   628    533    897      1
   629    534    535      1
   630    534    580      1
   631    535    536      1
   632    535    584      1
   633    537    538      1
   634    538    851      1
   635    538    908      1
   636    539    541      1
   637    540    541      1
   638    540    592      1
   639    541    543      1
   640    542    543      1
   641    543    544      1
   642    543    545      1
   643    546    548      1
   644    547    549      1
   645    548    549      1
   646    548    551      1
   647    549    550      1
   648    550    602      1
   649    550    929      1
   650    551    552      1
   651    551    605      1
   652    552    556      1
   653    553    555      1
   654    554    605      1
   655    555    557      1
   656    556    557      1
   657    556    558      1
   658    557    559      1
   659    558    611      1
   660    559    560      1
   661    559    934      1
   662    560    561      1
   663    560    563      1
   664    563    564      1
   665    563    942      1
   666    564    565      1
   667    565    567      1
   668    566    618      1
   669    567    568      1
   670    568    569      1
   671    568    570      1
   672    569    571      1
   673    570    572      1
   674    570    620      1
   675    571    574      1
   676    572    573      1
   677    572    574      1
   678    573    623      1
   679    573    628      1
   680    574    576      1
   681    575    576      1
   682    575    577      1
   683    576    579      1
   684    577    578      1
   685    577    952      1
   686    578    627      1
   687    578    631      1
   688    580    581      1
   689    581    582      1
   690    582    584      1
   691    582    586      1
   692    583    587      1
   693    584    585      1
   694    587    588      1
   695    587    962      1
   696    587    963      1
   697    588    589      1
   698    588    965      1
   699    589    590      1
   700    591    594      1
   701    592    593      1
   702    593    594      1
   703    593    595      1
   704    594    971      1
   705    596    598      1
   706    596    650      1
   707    597    971      1
   708    598    600      1
   709    598    651      1
   710    599    602      1
   711    601    656      1
   712    601    977      1
   713    602    979      1
   714    603    606      1
   715    604    605      1
   716    606    658      1
   717    606    659      1
   718    607    608      1
   719    608    659      1
   720    608    984      1
   721    609    610      1
   722    609    986      1
   723    610    611      1
   724    611    612      1
   725    612    613      1
   726    613    614      1
   727    614    615      1
   728    615    616      1
   729    615    996      1
   730    616    618      1
   731    616    619      1
   732    617    619      1
   733    617    677      1
   734    618    620      1
   735    620    621      1
   736    621    623      1
   737    622    624      1
   738    622    626      1
   739    622    679      1
   740    625    627      1
   741    627    632      1
   742    628    630      1
   743    628    631      1
   744    629    632      1
   745    629   1002      1
   746    629   1057      1
   747    631    633      1
   748    632    634      1
   749    633    634      1
   750    634    636      1
   751    635    637      1
   752    638    639      1
   753    638    684      1
   754    639    640      1
   755    640    642      1
   756    641    642      1
   757    641    643      1
   758    642    644      1
   759    643    645      1
   760    643   1014      1
   761    644    646      1
   762    645    646      1
   763    645    649      1
   764    646    647      1
   765    648    694      1
   766    648    697      1
   767    648   1018      1
   768    649    650      1
   769    649   1020      1
   770    651    654      1
   771    652    654      1
   772    652    701      1
   773    653    654      1
   774    653    655      1
   775    653    656      1
   776    654    657      1
   777    655   1028      1
   778    656   1030      1
   779    658    662      1
   780    659    660      1
   781    660    661      1
   782    660   1034      1
   783    661    662      1
   784    661    709      1
   785    662    663      1
   786    665    668      1
   787    665   1039      1
   788    666    667      1
   789    666    669      1
   790    668    670      1
   791    668    710      1
   792    669    670      1
   793    670    713      1
   794    671    674      1
   795    672    674      1
   796    673    675      1
   797    674    676      1
   798    675   1047      1
   799    675   1099      1
   800    676    677      1
   801    676    678      1
   802    677    679      1
   803    678    680      1
   804    678    722      1
   805    679    680      1
   806    680    681      1
   807    681   1051      1
   808    681   1052      1
   809    682   1058      1
   810    683    686      1
   811    684    685      1
   812    684    687      1
   813    686    687      1
   814    687    688      1
   815    690    694      1
   816    690   1068      1
   817    692    693      1
   818    692    694      1
   819    695    698      1
   820    696    698      1
   821    698    699      1
   822    699    700      1
   823    700    702      1
   824    701    703      1
   825    702    703      1
   826    702    705      1
   827    703    704      1
   828    705    708      1
   829    707    709      1
   830    708   1086      1
   831    709   1087      1
   832    711    712      1
   833    711    713      1
   834    713    716      1
   835    714    715      1
   836    714    716      1
   837    715   1098      1
   838    715   1099      1
   839    716    718      1
   840    717    719      1
   841    718    719      1
   842    718    720      1
   843    720    722      1
   844    721    724      1
   845    722    726      1
   846    724    726      1
   847    724   1106      1
   848    724   1107      1
   849    725   1106      1
   850    726    727      1
   851    727    728      1
   852    727    730      1
   853    729    731      1
   854    730    732      1
   855    731    733      1
   856    731    735      1
   857    731   1114      1
   858    732    734      1
   859    736    737      1
   860    736    800      1
   861    738    800      1
   862    738   1122      1
   863    738   1127      1
   864    739    740      1
   865    740    745      1
   866    741    742      1
   867    741    743      1
   868    741    803      1
   869    742    744      1
   870    742   1127      1
   871    743    746      1
   872    743    806      1
   873    745    746      1
   874    746    749      1
   875    747    749      1
   876    747    806      1
   877    748   1072      1
   878    749    752      1
   879    750   1071      1
   880    750   1136      1
   881    751    754      1
   882    752    753      1
   883    754    756      1
   884    754   1136      1
   885    754   1137      1
   886    755    758      1
   887    755    807      1
   888    756    757      1
   889    756    759      1
   890    758    760      1
   891    759    761      1
   892    759    809      1
   893    760    762      1
   894    760    811      1
   895    762    763      1
   896    762    764      1
   897    764    766      1
   898    765    815      1
   899    766    767      1
   900    767    768      1
   901    768    769      1
   902    769    771      1
   903    770    772      1
   904    771    773      1
   905    772    773      1
   906    772    823      1
   907    773    775      1
   908    774   1095      1
   909    775    776      1
   910    775    777      1
   911    778    779      1
   912    779    781      1
   913    779    782      1
   914    783    784      1
   915    784    785      1
   916    784    787      1
   917    784    838      1
   918    785    791      1
   919    786    788      1
   920    787    788      1
   921    787    790      1
   922    788   1173      1
   923    789    790      1
   924    791    840      1
   925    792    795      1
   926    793    794      1
   927    793    796      1
   928    796    847      1
   929    797   1182      1
   930    798    799      1
   931    798    801      1
   932    800    803      1
   933    801    802      1
   934    802    804      1
   935    803    804      1
   936    804    805      1
   937    805    806      1
   938    808    809      1
   939    808   1197      1
   940    809    812      1
   941    810    811      1
   942    811    813      1
   943    811    815      1
   944    812    814      1
   945    812   1201      1
   946    814    815      1
   947    814    817      1
   948    815    818      1
   949    816    817      1
   950    816    862      1
   951    816   1201      1
   952    817    819      1
   953    819    820      1
   954    819    864      1
   955    820    821      1
   956    821    822      1
   957    823    825      1
   958    824    825      1
   959    824    872      1
   960    826    827      1
   961    826    872      1
   962    826    874      1
   963    827    828      1
   964    827    831      1
   965    828    829      1
   966    828    830      1
   967    831    832      1
   968    831   1218      1
   969    832    833      1
   970    833    834      1
   971    834    836      1
   972    834    880      1
   973    835    836      1
   974    836    837      1
   975    837    841      1
   976    838    839      1
   977    838    840      1
   978    839    842      1
   979    839   1230      1
   980    840    843      1
   981    841    845      1
   982    841    891      1
   983    842    844      1
   984    842   1231      1
   985    844    845      1
   986    845    846      1
   987    846    897      1
   988    848    903      1
   989    849    850      1
   990    849    851      1
   991    849    903      1
   992    851    852      1
   993    853    854      1
   994    854    855      1
   995    855    857      1
   996    856    917      1
   997    858    859      1
   998    859    925      1
   999    860   1260      1
  1000    861    863      1
  1001    862    864      1
  1002    862   1260      1
  1003    863    867      1
  1004    864    868      1
  1005    865    866      1
  1006    865   1261      1
  1007    866    867      1
  1008    867    869      1
  1009    870    871      1
  1010    870    873      1
  1011    870    936      1
  1012    871    872      1
  1013    874    876      1
  1014    874   1269      1
  1015    875    944      1
  1016    876    879      1
  1017    877    880      1
  1018    878    879      1
  1019    879    883      1
  1020    880    882      1
  1021    880    883      1
  1022    881    945      1
  1023    883    885      1
  1024    884    888      1
  1025    884    947      1
  1026    885    886      1
  1027    885    887      1
  1028    887    890      1
  1029    889    891      1
  1030    890    892      1
  1031    890   1273      1
  1032    891    894      1
  1033    893    894      1
  1034    893    951      1
  1035    894    895      1
  1036    895    897      1
  1037    895    898      1
  1038    896    898      1
  1039    898    951      1
  1040    899    900      1
  1041    899    901      1
  1042    900    904      1
  1043    900    957      1
  1044    901    905      1
  1045    901   1239      1
  1046    902    903      1
  1047    906    908      1
  1048    906    963      1
  1049    907    909      1
  1050    908    909      1
  1051    909    910      1
  1052    909    912      1
  1053    911    912      1
  1054    911    966      1
  1055    911   1292      1
  1056    912    914      1
  1057    912    916      1
  1058    913    915      1
  1059    915    916      1
  1060    915    917      1
  1061    916    919      1
  1062    917    921      1
  1063    919    921      1
  1064    919    973      1
  1065    920    922      1
  1066    921   1299      1
  1067    922    923      1
  1068    922    975      1
  1069    923    924      1
  1070    923    926      1
  1071    924    925      1
  1072    924    927      1
  1073    926    927      1
  1074    926    981      1
  1075    927    928      1
  1076    927   1304      1
  1077    930    931      1
  1078    930    983      1
  1079    930   1361      1
  1080    931    933      1
  1081    932    934      1
  1082    934    935      1
  1083    935    936      1
  1084    937    938      1
  1085    938    940      1
  1086    938    992      1
  1087    939    941      1
  1088    939    992      1
  1089    939   1311      1
  1090    940    941      1
  1091    940    942      1
  1092    941    943      1
  1093    942    944      1
  1094    943    945      1
  1095    943   1317      1
  1096    944    945      1
  1097    946    948      1
  1098    948   1376      1
  1099    949    950      1
  1100    950    953      1
  1101    950   1330      1
  1102    951    952      1
  1103    952    954      1
  1104    953    955      1
  1105    953    956      1
  1106    955   1006      1
  1107    955   1007      1
  1108    956   1332      1
  1109    957    958      1
  1110    958    959      1
  1111    959    960      1
  1112    959   1335      1
  1113    960    961      1
  1114    960   1011      1
  1115    961    962      1
  1116    962    963      1
  1117    964    966      1
  1118    966    967      1
  1119    966   1342      1
  1120    968   1021      1
  1121    968   1343      1
  1122    968   1346      1
  1123    969    970      1
  1124    969   1020      1
  1125    970    971      1
  1126    970    974      1
  1127    971    975      1
  1128    972    973      1
  1129    972    974      1
  1130    972    975      1
  1131    973   1349      1
  1132    974    976      1
  1133    977    978      1
  1134    977    979      1
  1135    978    980      1
  1136    978   1031      1
  1137    979    981      1
  1138    980    982      1
  1139    980   1404      1
  1140    981    983      1
  1141    982    983      1
  1142    982   1357      1
  1143    984    985      1
  1144    984    986      1
  1145    985   1038      1
  1146    986    987      1
  1147    987    989      1
  1148    988    991      1
  1149    989    990      1
  1150    989    992      1
  1151    990   1311      1
  1152    990   1367      1
  1153    991    993      1
  1154    991   1043      1
  1155    993    994      1
  1156    993   1410      1
  1157    995    996      1
  1158    996    997      1
  1159    997   1050      1
  1160    998   1374      1
  1161    999   1000      1
  1162    999   1002      1
  1163    999   1051      1
  1164   1001   1003      1
  1165   1003   1004      1
  1166   1003   1005      1
  1167   1005   1006      1
  1168   1006   1385      1
  1169   1008   1065      1
  1170   1009   1010      1
  1171   1010   1011      1
  1172   1010   1012      1
  1173   1011   1013      1
  1174   1012   1014      1
  1175   1013   1015      1
  1176   1013   1387      1
  1177   1014   1016      1
  1178   1015   1017      1
  1179   1015   1391      1
  1180   1016   1017      1
  1181   1016   1020      1
  1182   1017   1021      1
  1183   1019   1023      1
  1184   1019   1391      1
  1185   1019   1444      1
  1186   1021   1024      1
  1187   1021   1395      1
  1188   1022   1024      1
  1189   1023   1024      1
  1190   1023   1025      1
  1191   1024   1026      1
  1192   1025   1074      1
  1193   1025   1078      1
  1194   1027   1028      1
  1195   1027   1029      1
  1196   1027   1078      1
  1197   1028   1030      1
  1198   1029   1032      1
  1199   1029   1400      1
  1200   1030   1031      1
  1201   1031   1032      1
  1202   1032   1404      1
  1203   1033   1035      1
  1204   1033   1083      1
  1205   1033   1084      1
  1206   1035   1036      1
  1207   1035   1090      1
  1208   1036   1039      1
  1209   1036   1087      1
  1210   1037   1038      1
  1211   1038   1040      1
  1212   1039   1040      1
  1213   1040   1041      1
  1214   1041   1042      1
  1215   1041   1043      1
  1216   1042   1044      1
  1217   1043   1045      1
  1218   1044   1097      1
  1219   1044   1412      1
  1220   1045   1410      1
  1221   1045   1412      1
  1222   1046   1047      1
  1223   1047   1050      1
  1224   1048   1102      1
  1225   1049   1416      1
  1226   1050   1051      1
  1227   1052   1107      1
  1228   1053   1055      1
  1229   1053   1421      1
  1230   1054   1055      1
  1231   1054   1056      1
  1232   1054   1109      1
  1233   1056   1112      1
  1234   1056   1424      1
  1235   1058   1060      1
  1236   1058   1114      1
  1237   1059   1061      1
  1238   1060   1061      1
  1239   1060   1120      1
  1240   1061   1062      1
  1241   1061   1063      1
  1242   1063   1429      1
  1243   1066   1067      1
  1244   1067   1069      1
  1245   1068   1069      1
  1246   1068   1070      1
  1247   1069   1072      1
  1248   1071   1439      1
  1249   1072   1073      1
  1250   1074   1444      1
  1251   1074   1448      1
  1252   1076   1448      1
  1253   1077   1078      1
  1254   1078   1079      1
  1255   1079   1081      1
  1256   1079   1454      1
  1257   1082   1457      1
  1258   1085   1089      1
  1259   1086   1088      1
  1260   1086   1091      1
  1261   1087   1088      1
  1262   1088   1090      1
  1263   1089   1090      1
  1264   1089   1465      1
  1265   1090   1092      1
  1266   1091   1093      1
  1267   1092   1093      1
  1268   1092   1094      1
  1269   1096   1098      1
  1270   1097   1476      1
  1271   1098   1100      1
  1272   1099   1102      1
  1273   1100   1103      1
  1274   1101   1103      1
  1275   1101   1104      1
  1276   1101   1476      1
  1277   1101   1479      1
  1278   1102   1103      1
  1279   1105   1106      1
  1280   1106   1110      1
  1281   1107   1109      1
  1282   1109   1111      1
  1283   1110   1111      1
  1284   1110   1113      1
  1285   1111   1112      1
  1286   1112   1482      1
  1287   1113   1116      1
  1288   1114   1117      1
  1289   1115   1482      1
  1290   1116   1117      1
  1291   1117   1118      1
  1292   1118   1119      1
  1293   1118   1120      1
  1294   1119   1121      1
  1295   1124   1125      1
  1296   1124   1494      1
  1297   1125   1128      1
  1298   1126   1498      1
  1299   1127   1128      1
  1300   1128   1129      1
  1301   1130   1190      1
  1302   1131   1133      1
  1303   1132   1133      1
  1304   1133   1135      1
  1305   1135   1138      1
  1306   1136   1140      1
  1307   1138   1139      1
  1308   1138   1504      1
  1309   1139   1142      1
  1310   1140   1142      1
  1311   1140   1145      1
  1312   1141   1143      1
  1313   1143   1144      1
  1314   1143   1198      1
  1315   1144   1145      1
  1316   1145   1146      1
  1317   1147   1510      1
  1318   1148   1149      1
  1319   1149   1151      1
  1320   1149   1152      1
  1321   1150   1151      1
  1322   1151   1154      1
  1323   1153   1205      1
  1324   1154   1516      1
  1325   1156   1157      1
  1326   1157   1159      1
  1327   1158   1525      1
  1328   1159   1160      1
  1329   1159   1162      1
  1330   1160   1217      1
  1331   1161   1163      1
  1332   1161   1526      1
  1333   1162   1164      1
  1334   1163   1164      1
  1335   1163   1531      1
  1336   1164   1165      1
  1337   1165   1166      1
  1338   1165   1170      1
  1339   1166   1167      1
  1340   1166   1169      1
  1341   1167   1222      1
  1342   1168   1170      1
  1343   1168   1531      1
  1344   1170   1171      1
  1345   1171   1175      1
  1346   1172   1175      1
  1347   1172   1227      1
  1348   1174   1481      1
  1349   1175   1176      1
  1350   1176   1177      1
  1351   1176   1178      1
  1352   1176   1179      1
  1353   1177   1543      1
  1354   1178   1541      1
  1355   1178   1542      1
  1356   1180   1234      1
  1357   1181   1182      1
  1358   1183   1186      1
  1359   1184   1185      1
  1360   1185   1186      1
  1361   1185   1187      1
  1362   1186   1240      1
  1363   1187   1189      1
  1364   1187   1551      1
  1365   1188   1190      1
  1366   1188   1499      1
  1367   1188   1556      1
  1368   1189   1192      1
  1369   1189   1557      1
  1370   1190   1191      1
  1371   1191   1192      1
  1372   1191   1194      1
  1373   1192   1195      1
  1374   1193   1194      1
  1375   1194   1196      1
  1376   1195   1196      1
  1377   1195   1247      1
  1378   1196   1197      1
  1379   1197   1249      1
  1380   1199   1200      1
  1381   1200   1203      1
  1382   1200   1254      1
  1383   1201   1255      1
  1384   1202   1205      1
  1385   1203   1206      1
  1386   1204   1205      1
  1387   1205   1207      1
  1388   1206   1207      1
  1389   1206   1208      1
  1390   1207   1209      1
  1391   1208   1210      1
  1392   1208   1259      1
  1393   1209   1210      1
  1394   1210   1211      1
  1395   1211   1264      1
  1396   1212   1213      1
  1397   1213   1215      1
  1398   1213   1577      1
  1399   1214   1215      1
  1400   1215   1216      1
  1401   1216   1219      1
  1402   1216   1586      1
  1403   1217   1218      1
  1404   1218   1219      1
  1405   1219   1220      1
  1406   1220   1221      1
  1407   1220   1222      1
  1408   1221   1223      1
  1409   1221   1588      1
  1410   1223   1225      1
  1411   1223   1591      1
  1412   1224   1227      1
  1413   1225   1226      1
  1414   1226   1228      1
  1415   1227   1599      1
  1416   1228   1231      1
  1417   1228   1273      1
  1418   1229   1600      1
  1419   1231   1232      1
  1420   1231   1233      1
  1421   1233   1235      1
  1422   1233   1279      1
  1423   1234   1235      1
  1424   1235   1236      1
  1425   1237   1283      1
  1426   1238   1239      1
  1427   1238   1241      1
  1428   1240   1241      1
  1429   1241   1242      1
  1430   1242   1244      1
  1431   1243   1245      1
  1432   1243   1288      1
  1433   1243   1619      1
  1434   1244   1246      1
  1435   1244   1291      1
  1436   1245   1246      1
  1437   1245   1625      1
  1438   1246   1248      1
  1439   1247   1248      1
  1440   1247   1249      1
  1441   1248   1250      1
  1442   1249   1252      1
  1443   1250   1251      1
  1444   1250   1253      1
  1445   1251   1628      1
  1446   1251   1633      1
  1447   1252   1253      1
  1448   1252   1255      1
  1449   1253   1254      1
  1450   1254   1632      1
  1451   1256   1257      1
  1452   1256   1637      1
  1453   1256   1639      1
  1454   1257   1258      1
  1455   1257   1306      1
  1456   1258   1259      1
  1457   1258   1260      1
  1458   1259   1639      1
  1459   1260   1261      1
  1460   1261   1262      1
  1461   1262   1263      1
  1462   1262   1264      1
  1463   1263   1265      1
  1464   1263   1309      1
  1465   1264   1266      1
  1466   1265   1267      1
  1467   1265   1644      1
  1468   1266   1267      1
  1469   1266   1269      1
  1470   1267   1268      1
  1471   1268   1270      1
  1472   1268   1648      1
  1473   1269   1271      1
  1474   1270   1271      1
  1475   1270   1654      1
  1476   1272   1318      1
  1477   1274   1277      1
  1478   1275   1278      1
  1479   1276   1277      1
  1480   1277   1280      1
  1481   1277   1330      1
  1482   1278   1279      1
  1483   1278   1605      1
  1484   1279   1281      1
  1485   1280   1282      1
  1486   1280   1332      1
  1487   1281   1282      1
  1488   1283   1285      1
  1489   1283   1611      1
  1490   1284   1285      1
  1491   1285   1286      1
  1492   1285   1288      1
  1493   1287   1671      1
  1494   1288   1290      1
  1495   1288   1672      1
  1496   1289   1290      1
  1497   1289   1340      1
  1498   1289   1671      1
  1499   1290   1294      1
  1500   1292   1293      1
  1501   1292   1340      1
  1502   1294   1295      1
  1503   1295   1296      1
  1504   1295   1676      1
  1505   1296   1297      1
  1506   1296   1298      1
  1507   1297   1348      1
  1508   1297   1685      1
  1509   1298   1299      1
  1510   1299   1300      1
  1511   1301   1305      1
  1512   1302   1304      1
  1513   1302   1352      1
  1514   1303   1305      1
  1515   1303   1637      1
  1516   1303   1684      1
  1517   1305   1306      1
  1518   1307   1694      1
  1519   1308   1309      1
  1520   1309   1310      1
  1521   1310   1644      1
  1522   1310   1698      1
  1523   1311   1313      1
  1524   1312   1313      1
  1525   1313   1314      1
  1526   1314   1317      1
  1527   1315   1318      1
  1528   1316   1320      1
  1529   1316   1370      1
  1530   1316   1705      1
  1531   1317   1319      1
  1532   1318   1319      1
  1533   1318   1322      1
  1534   1319   1323      1
  1535   1320   1321      1
  1536   1320   1324      1
  1537   1322   1325      1
  1538   1322   1707      1
  1539   1324   1327      1
  1540   1325   1326      1
  1541   1325   1327      1
  1542   1325   1712      1
  1543   1327   1328      1
  1544   1327   1715      1
  1545   1329   1381      1
  1546   1331   1332      1
  1547   1332   1333      1
  1548   1334   1335      1
  1549   1336   1338      1
  1550   1337   1339      1
  1551   1338   1339      1
  1552   1338   1340      1
  1553   1339   1341      1
  1554   1339   1342      1
  1555   1342   1343      1
  1556   1344   1345      1
  1557   1345   1348      1
  1558   1345   1735      1
  1559   1347   1350      1
  1560   1347   1396      1
  1561   1348   1741      1
  1562   1349   1351      1
  1563   1350   1351      1
  1564   1350   1353      1
  1565   1351   1352      1
  1566   1352   1354      1
  1567   1353   1354      1
  1568   1353   1355      1
  1569   1355   1356      1
  1570   1355   1797      1
  1571   1356   1359      1
  1572   1357   1358      1
  1573   1357   1361      1
  1574   1359   1362      1
  1575   1359   1406      1
  1576   1360   1362      1
  1577   1360   1694      1
  1578   1361   1364      1
  1579   1362   1365      1
  1580   1363   1364      1
  1581   1364   1367      1
  1582   1365   1366      1
  1583   1365   1368      1
  1584   1368   1369      1
  1585   1368   1751      1
  1586   1369   1370      1
  1587   1369   1755      1
  1588   1370   1372      1
  1589   1371   1373      1
  1590   1372   1373      1
  1591   1372   1758      1
  1592   1373   1375      1
  1593   1373   1415      1
  1594   1374   1375      1
  1595   1374   1376      1
  1596   1375   1377      1
  1597   1376   1379      1
  1598   1377   1378      1
  1599   1377   1379      1
  1600   1378   1422      1
  1601   1378   1763      1
  1602   1379   1380      1
  1603   1381   1383      1
  1604   1381   1770      1
  1605   1382   1383      1
  1606   1382   1384      1
  1607   1382   1773      1
  1608   1383   1385      1
  1609   1385   1386      1
  1610   1388   1390      1
  1611   1389   1393      1
  1612   1389   1441      1
  1613   1389   1781      1
  1614   1390   1391      1
  1615   1390   1392      1
  1616   1390   1393      1
  1617   1393   1443      1
  1618   1394   1396      1
  1619   1396   1397      1
  1620   1397   1792      1
  1621   1398   1400      1
  1622   1399   1797      1
  1623   1400   1403      1
  1624   1400   1454      1
  1625   1401   1850      1
  1626   1402   1404      1
  1627   1404   1405      1
  1628   1407   1464      1
  1629   1408   1466      1
  1630   1409   1473      1
  1631   1410   1411      1
  1632   1412   1414      1
  1633   1413   1414      1
  1634   1413   1473      1
  1635   1413   1478      1
  1636   1414   1416      1
  1637   1416   1417      1
  1638   1417   1418      1
  1639   1417   1420      1
  1640   1418   1419      1
  1641   1418   1478      1
  1642   1420   1421      1
  1643   1420   1422      1
  1644   1422   1423      1
  1645   1423   1819      1
  1646   1424   1425      1
  1647   1426   1427      1
  1648   1426   1486      1
  1649   1426   1823      1
  1650   1427   1428      1
  1651   1428   1429      1
  1652   1428   1488      1
  1653   1429   1430      1
  1654   1431   1434      1
  1655   1431   1827      1
  1656   1432   1433      1
  1657   1433   1434      1
  1658   1433   1436      1
  1659   1434   1437      1
  1660   1435   1436      1
  1661   1436   1438      1
  1662   1438   1442      1
  1663   1440   1442      1
  1664   1440   1834      1
  1665   1440   1838      1
  1666   1443   1444      1
  1667   1443   1446      1
  1668   1445   1839      1
  1669   1447   1451      1
  1670   1447   1839      1
  1671   1448   1449      1
  1672   1449   1452      1
  1673   1450   1452      1
  1674   1451   1452      1
  1675   1451   1848      1
  1676   1452   1453      1
  1677   1454   1456      1
  1678   1455   1848      1
  1679   1456   1457      1
  1680   1456   1459      1
  1681   1458   1459      1
  1682   1459   1461      1
  1683   1461   1462      1
  1684   1461   1463      1
  1685   1462   1464      1
  1686   1462   1853      1
  1687   1463   1466      1
  1688   1464   1857      1
  1689   1465   1466      1
  1690   1465   1467      1
  1691   1467   1470      1
  1692   1468   1469      1
  1693   1468   1471      1
  1694   1469   1475      1
  1695   1469   1861      1
  1696   1470   1474      1
  1697   1472   1473      1
  1698   1473   1475      1
  1699   1474   1476      1
  1700   1474   1477      1
  1701   1475   1868      1
  1702   1477   1479      1
  1703   1478   1868      1
  1704   1479   1480      1
  1705   1481   1482      1
  1706   1481   1484      1
  1707   1482   1483      1
  1708   1484   1485      1
  1709   1485   1486      1
  1710   1485   1875      1
  1711   1486   1487      1
  1712   1487   1488      1
  1713   1487   1489      1
  1714   1488   1490      1
  1715   1491   1492      1
  1716   1491   1493      1
  1717   1492   1498      1
  1718   1493   1494      1
  1719   1493   1497      1
  1720   1494   1499      1
  1721   1495   1497      1
  1722   1496   1497      1
  1723   1497   1500      1
  1724   1499   1500      1
  1725   1500   1555      1
  1726   1501   1502      1
  1727   1502   1506      1
  1728   1502   1890      1
  1729   1503   1505      1
  1730   1503   1506      1
  1731   1503   1561      1
  1732   1503   1563      1
  1733   1506   1507      1
  1734   1507   1508      1
  1735   1507   1509      1
  1736   1508   1893      1
  1737   1509   1512      1
  1738   1509   1896      1
  1739   1510   1511      1
  1740   1511   1512      1
  1741   1512   1513      1
  1742   1513   1514      1
  1743   1513   1515      1
  1744   1514   1905      1
  1745   1516   1518      1
  1746   1516   1520      1
  1747   1517   1518      1
  1748   1517   1571      1
  1749   1517   1574      1
  1750   1519   1522      1
  1751   1519   1908      1
  1752   1521   1522      1
  1753   1521   1573      1
  1754   1521   1579      1
  1755   1522   1523      1
  1756   1524   1525      1
  1757   1524   1579      1
  1758   1524   1585      1
  1759   1525   1526      1
  1760   1525   1528      1
  1761   1526   1527      1
  1762   1527   1529      1
  1763   1527   1863      1
  1764   1530   1531      1
  1765   1530   1533      1
  1766   1530   1534      1
  1767   1532   1533      1
  1768   1533   1536      1
  1769   1534   1535      1
  1770   1535   1537      1
  1771   1535   1921      1
  1772   1536   1537      1
  1773   1536   1594      1
  1774   1537   1538      1
  1775   1538   1539      1
  1776   1538   1540      1
  1777   1539   1540      1
  1778   1541   1599      1
  1779   1542   1543      1
  1780   1542   1545      1
  1781   1544   1545      1
  1782   1544   1547      1
  1783   1544   1929      1
  1784   1545   1546      1
  1785   1547   1932      1
  1786   1548   1549      1
  1787   1548   1550      1
  1788   1550   1552      1
  1789   1550   1612      1
  1790   1552   1553      1
  1791   1552   1554      1
  1792   1554   1559      1
  1793   1554   1617      1
  1794   1556   1557      1
  1795   1556   1558      1
  1796   1557   1560      1
  1797   1559   1623      1
  1798   1560   1626      1
  1799   1562   1564      1
  1800   1563   1564      1
  1801   1563   1565      1
  1802   1564   1567      1
  1803   1565   1944      1
  1804   1565   1945      1
  1805   1566   1567      1
  1806   1566   1630      1
  1807   1566   1632      1
  1808   1567   1568      1
  1809   1568   1569      1
  1810   1568   1945      1
  1811   1569   1570      1
  1812   1570   1572      1
  1813   1570   1952      1
  1814   1572   1641      1
  1815   1574   1577      1
  1816   1574   1579      1
  1817   1575   1578      1
  1818   1576   1578      1
  1819   1576   1641      1
  1820   1576   1647      1
  1821   1578   1580      1
  1822   1580   1581      1
  1823   1580   1584      1
  1824   1581   1585      1
  1825   1581   1963      1
  1826   1582   1586      1
  1827   1583   1586      1
  1828   1584   1650      1
  1829   1585   1587      1
  1830   1586   1588      1
  1831   1588   1589      1
  1832   1589   1590      1
  1833   1589   1591      1
  1834   1591   1596      1
  1835   1592   1595      1
  1836   1593   1594      1
  1837   1594   1595      1
  1838   1595   1597      1
  1839   1596   1598      1
  1840   1596   1658      1
  1841   1597   1601      1
  1842   1597   1972      1
  1843   1598   1600      1
  1844   1599   1600      1
  1845   1600   1603      1
  1846   1601   1602      1
  1847   1602   1604      1
  1848   1602   1607      1
  1849   1603   1605      1
  1850   1603   1606      1
  1851   1606   1607      1
  1852   1606   1665      1
  1853   1608   1609      1
  1854   1608   1612      1
  1855   1609   1613      1
  1856   1610   1611      1
  1857   1611   1615      1
  1858   1611   1670      1
  1859   1612   1617      1
  1860   1613   1616      1
  1861   1613   2037      1
  1862   1614   1615      1
  1863   1615   1616      1
  1864   1615   1619      1
  1865   1616   1618      1
  1866   1616   1620      1
  1867   1617   1618      1
  1868   1618   1622      1
  1869   1619   1621      1
  1870   1620   1621      1
  1871   1620   1987      1
  1872   1620   2041      1
  1873   1621   1674      1
  1874   1622   1623      1
  1875   1622   1987      1
  1876   1623   1624      1
  1877   1623   1992      1
  1878   1625   1626      1
  1879   1625   1628      1
  1880   1627   1628      1
  1881   1628   1629      1
  1882   1630   1634      1
  1883   1630   1995      1
  1884   1631   1998      1
  1885   1632   1633      1
  1886   1633   1635      1
  1887   1635   1636      1
  1888   1635   1637      1
  1889   1638   1639      1
  1890   1640   1643      1
  1891   1640   1693      1
  1892   1640   2008      1
  1893   1641   1642      1
  1894   1644   1646      1
  1895   1645   1646      1
  1896   1646   1649      1
  1897   1646   1701      1
  1898   1647   1648      1
  1899   1648   1649      1
  1900   1649   1651      1
  1901   1649   1653      1
  1902   1650   1652      1
  1903   1652   1653      1
  1904   1652   2014      1
  1905   1653   1655      1
  1906   1655   1656      1
  1907   1656   1711      1
  1908   1657   1658      1
  1909   1658   1660      1
  1910   1659   1718      1
  1911   1660   1661      1
  1912   1661   1663      1
  1913   1661   2021      1
  1914   1662   1663      1
  1915   1662   1718      1
  1916   1663   2024      1
  1917   1664   1665      1
  1918   1664   1666      1
  1919   1667   1668      1
  1920   1668   1669      1
  1921   1669   1724      1
  1922   1671   1728      1
  1923   1673   1675      1
  1924   1673   2043      1
  1925   1673   2046      1
  1926   1674   1675      1
  1927   1675   1677      1
  1928   1677   1678      1
  1929   1677   1736      1
  1930   1678   1681      1
  1931   1679   1683      1
  1932   1679   1736      1
  1933   1679   1738      1
  1934   1679   2051      1
  1935   1680   1681      1
  1936   1681   1684      1
  1937   1682   1684      1
  1938   1684   1685      1
  1939   1685   1687      1
  1940   1686   1688      1
  1941   1687   1689      1
  1942   1687   1741      1
  1943   1688   1691      1
  1944   1688   2057      1
  1945   1689   1690      1
  1946   1689   1746      1
  1947   1690   1691      1
  1948   1690   1692      1
  1949   1691   1693      1
  1950   1692   1694      1
  1951   1692   1696      1
  1952   1693   1695      1
  1953   1695   1696      1
  1954   1695   1697      1
  1955   1696   1698      1
  1956   1699   1700      1
  1957   1700   1701      1
  1958   1700   1702      1
  1959   1702   1703      1
  1960   1702   2066      1
  1961   1703   1704      1
  1962   1703   2073      1
  1963   1705   1707      1
  1964   1706   1710      1
  1965   1706   1757      1
  1966   1706   2073      1
  1967   1707   1708      1
  1968   1709   1710      1
  1969   1710   1761      1
  1970   1710   2081      1
  1971   1711   1712      1
  1972   1712   1713      1
  1973   1713   1715      1
  1974   1713   1716      1
  1975   1714   1716      1
  1976   1715   1767      1
  1977   1716   1717      1
  1978   1716   1766      1
  1979   1718   1719      1
  1980   1720   1722      1
  1981   1721   1723      1
  1982   1722   2090      1
  1983   1724   1725      1
  1984   1724   1727      1
  1985   1725   1726      1
  1986   1725   2093      1
  1987   1726   1729      1
  1988   1726   2100      1
  1989   1727   1728      1
  1990   1727   1729      1
  1991   1729   1730      1
  1992   1730   1732      1
  1993   1730   1733      1
  1994   1731   1734      1
  1995   1731   1785      1
  1996   1731   1787      1
  1997   1732   1787      1
  1998   1732   2104      1
  1999   1733   1736      1
  2000   1733   2046      1
  2001   1734   1735      1
  2002   1736   1737      1
  2003   1738   1739      1
  2004   1738   2114      1
  2005   1739   1741      1
  2006   1739   1742      1
  2007   1740   1742      1
  2008   1740   1794      1
  2009   1740   1797      1
  2010   1742   1743      1
  2011   1743   1798      1
  2012   1743   2117      1
  2013   1744   1745      1
  2014   1745   1747      1
  2015   1745   2117      1
  2016   1745   2120      1
  2017   1746   1747      1
  2018   1747   1748      1
  2019   1748   1749      1
  2020   1749   1750      1
  2021   1749   1806      1
  2022   1750   1809      1
  2023   1750   2128      1
  2024   1751   1752      1
  2025   1751   1810      1
  2026   1752   1754      1
  2027   1752   1813      1
  2028   1753   2070      1
  2029   1754   1755      1
  2030   1754   1756      1
  2031   1755   1758      1
  2032   1756   1757      1
  2033   1756   2136      1
  2034   1758   1759      1
  2035   1760   1761      1
  2036   1761   1766      1
  2037   1761   2145      1
  2038   1762   1763      1
  2039   1763   1765      1
  2040   1764   1765      1
  2041   1765   1819      1
  2042   1766   1768      1
  2043   1767   1768      1
  2044   1767   1770      1
  2045   1768   1769      1
  2046   1769   1771      1
  2047   1769   1772      1
  2048   1770   1773      1
  2049   1771   1774      1
  2050   1772   1773      1
  2051   1772   1824      1
  2052   1774   1824      1
  2053   1774   2150      1
  2054   1775   1778      1
  2055   1775   1827      1
  2056   1776   1777      1
  2057   1777   1778      1
  2058   1777   1779      1
  2059   1778   1780      1
  2060   1779   1782      1
  2061   1779   2159      1
  2062   1780   1781      1
  2063   1780   1783      1
  2064   1781   1784      1
  2065   1782   1783      1
  2066   1782   2167      1
  2067   1783   1786      1
  2068   1786   1789      1
  2069   1786   1837      1
  2070   1787   1788      1
  2071   1788   1789      1
  2072   1788   2167      1
  2073   1788   2172      1
  2074   1789   1790      1
  2075   1790   1795      1
  2076   1790   1844      1
  2077   1791   1792      1
  2078   1792   1794      1
  2079   1793   1794      1
  2080   1795   1796      1
  2081   1796   1800      1
  2082   1796   2178      1
  2083   1797   1799      1
  2084   1798   1799      1
  2085   1798   1800      1
  2086   1799   1801      1
  2087   1800   1802      1
  2088   1801   1803      1
  2089   1802   1804      1
  2090   1802   2186      1
  2091   1803   1804      1
  2092   1803   1805      1
  2093   1804   1807      1
  2094   1807   1808      1
  2095   1807   2191      1
  2096   1811   1812      1
  2097   1812   1813      1
  2098   1812   1814      1
  2099   1812   1815      1
  2100   1813   1816      1
  2101   1815   1817      1
  2102   1815   1818      1
  2103   1816   1818      1
  2104   1816   2136      1
  2105   1817   1865      1
  2106   1817   1867      1
  2107   1818   2201      1
  2108   1819   1822      1
  2109   1820   1821      1
  2110   1820   2207      1
  2111   1821   1822      1
  2112   1822   1824      1
  2113   1824   1825      1
  2114   1828   1829      1
  2115   1828   1830      1
  2116   1829   1831      1
  2117   1829   2215      1
  2118   1830   1832      1
  2119   1831   1832      1
  2120   1831   2222      1
  2121   1832   1833      1
  2122   1833   1834      1
  2123   1833   1835      1
  2124   1835   1836      1
  2125   1835   1838      1
  2126   1836   2226      1
  2127   1838   1839      1
  2128   1839   1841      1
  2129   1840   1842      1
  2130   1842   1845      1
  2131   1842   2229      1
  2132   1843   1844      1
  2133   1844   1846      1
  2134   1846   1847      1
  2135   1847   1850      1
  2136   1848   1849      1
  2137   1850   1853      1
  2138   1852   1854      1
  2139   1853   1854      1
  2140   1854   1855      1
  2141   1855   1856      1
  2142   1855   1857      1
  2143   1856   1858      1
  2144   1856   2245      1
  2145   1857   1861      1
  2146   1858   1859      1
  2147   1858   1860      1
  2148   1860   1864      1
  2149   1860   2247      1
  2150   1861   1862      1
  2151   1864   1866      1
  2152   1866   2256      1
  2153   1867   1868      1
  2154   1869   2257      1
  2155   1870   2262      1
  2156   1871   1873      1
  2157   1872   1874      1
  2158   1873   1875      1
  2159   1874   2207      1
  2160   1874   2265      1
  2161   1875   1876      1
  2162   1876   1878      1
  2163   1877   1878      1
  2164   1877   2269      1
  2165   1878   1880      1
  2166   1881   1884      1
  2167   1881   1934      1
  2168   1882   1885      1
  2169   1883   1884      1
  2170   1884   1885      1
  2171   1885   1886      1
  2172   1885   1887      1
  2173   1886   1888      1
  2174   1886   2282      1
  2175   1887   1889      1
  2176   1887   1935      1
  2177   1889   1891      1
  2178   1891   1892      1
  2179   1892   2287      1
  2180   1892   2289      1
  2181   1893   1895      1
  2182   1894   1897      1
  2183   1894   2293      1
  2184   1894   2349      1
  2185   1895   1896      1
  2186   1895   1898      1
  2187   1896   1900      1
  2188   1898   1901      1
  2189   1899   1900      1
  2190   1900   1902      1
  2191   1901   1902      1
  2192   1901   1903      1
  2193   1902   1904      1
  2194   1904   1906      1
  2195   1904   1907      1
  2196   1904   1949      1
  2197   1905   1908      1
  2198   1906   2299      1
  2199   1906   2301      1
  2200   1909   1910      1
  2201   1909   2301      1
  2202   1910   1912      1
  2203   1911   1958      1
  2204   1912   1913      1
  2205   1914   1965      1
  2206   1915   1917      1
  2207   1916   1917      1
  2208   1916   1918      1
  2209   1917   1920      1
  2210   1919   1920      1
  2211   1919   1966      1
  2212   1919   2317      1
  2213   1920   1965      1
  2214   1921   1922      1
  2215   1922   1923      1
  2216   1922   1924      1
  2217   1923   1925      1
  2218   1924   1926      1
  2219   1925   1926      1
  2220   1925   2325      1
  2221   1926   1973      1
  2222   1927   1928      1
  2223   1927   1976      1
  2224   1928   1930      1
  2225   1928   2327      1
  2226   1929   1931      1
  2227   1930   1931      1
  2228   1931   1932      1
  2229   1933   1934      1
  2230   1934   1935      1
  2231   1935   1936      1
  2232   1936   1938      1
  2233   1936   2336      1
  2234   1937   1939      1
  2235   1938   1939      1
  2236   1938   2341      1
  2237   1939   1941      1
  2238   1940   1942      1
  2239   1940   2341      1
  2240   1940   2344      1
  2241   1941   1942      1
  2242   1941   1943      1
  2243   1942   1991      1
  2244   1945   1947      1
  2245   1946   1947      1
  2246   1946   1948      1
  2247   1946   2349      1
  2248   1950   1951      1
  2249   1950   1952      1
  2250   1950   2004      1
  2251   1951   1953      1
  2252   1951   2005      1
  2253   1952   1954      1
  2254   1953   1954      1
  2255   1953   2359      1
  2256   1954   1957      1
  2257   1955   1958      1
  2258   1956   1957      1
  2259   1957   1959      1
  2260   1958   1959      1
  2261   1958   2362      1
  2262   1959   1960      1
  2263   1960   1961      1
  2264   1960   1962      1
  2265   1962   1964      1
  2266   1962   2366      1
  2267   1964   1965      1
  2268   1964   1966      1
  2269   1965   1967      1
  2270   1966   1968      1
  2271   1966   2370      1
  2272   1968   1969      1
  2273   1968   1970      1
  2274   1969   1971      1
  2275   1971   2019      1
  2276   1973   1974      1
  2277   1973   1976      1
  2278   1973   2375      1
  2279   1975   1977      1
  2280   1975   2020      1
  2281   1976   1978      1
  2282   1977   1979      1
  2283   1977   2026      1
  2284   1978   1979      1
  2285   1979   1980      1
  2286   1982   1983      1
  2287   1983   1984      1
  2288   1983   2383      1
  2289   1984   1985      1
  2290   1985   1986      1
  2291   1985   2039      1
  2292   1986   1988      1
  2293   1986   1989      1
  2294   1987   1990      1
  2295   1988   2387      1
  2296   1988   2392      1
  2297   1989   1990      1
  2298   1990   2048      1
  2299   1991   1992      1
  2300   1991   1994      1
  2301   1992   1995      1
  2302   1993   2392      1
  2303   1995   1997      1
  2304   1996   2052      1
  2305   1997   1998      1
  2306   1997   1999      1
  2307   1998   2000      1
  2308   1999   2001      1
  2309   2000   2003      1
  2310   2000   2057      1
  2311   2001   2002      1
  2312   2001   2003      1
  2313   2002   2005      1
  2314   2002   2398      1
  2315   2003   2007      1
  2316   2005   2356      1
  2317   2006   2009      1
  2318   2007   2008      1
  2319   2007   2009      1
  2320   2009   2010      1
  2321   2009   2062      1
  2322   2010   2011      1
  2323   2010   2012      1
  2324   2012   2405      1
  2325   2013   2014      1
  2326   2013   2068      1
  2327   2015   2016      1
  2328   2016   2017      1
  2329   2016   2411      1
  2330   2018   2019      1
  2331   2019   2020      1
  2332   2020   2023      1
  2333   2022   2023      1
  2334   2023   2025      1
  2335   2024   2027      1
  2336   2024   2090      1
  2337   2025   2026      1
  2338   2025   2027      1
  2339   2025   2028      1
  2340   2026   2029      1
  2341   2027   2030      1
  2342   2029   2030      1
  2343   2031   2034      1
  2344   2031   2093      1
  2345   2032   2034      1
  2346   2033   2036      1
  2347   2033   2424      1
  2348   2034   2035      1
  2349   2034   2038      1
  2350   2035   2036      1
  2351   2035   2037      1
  2352   2036   2039      1
  2353   2037   2041      1
  2354   2038   2042      1
  2355   2038   2097      1
  2356   2039   2040      1
  2357   2040   2044      1
  2358   2040   2430      1
  2359   2041   2043      1
  2360   2042   2043      1
  2361   2042   2045      1
  2362   2044   2045      1
  2363   2044   2435      1
  2364   2045   2047      1
  2365   2046   2103      1
  2366   2047   2103      1
  2367   2047   2106      1
  2368   2049   2051      1
  2369   2050   2053      1
  2370   2051   2055      1
  2371   2051   2111      1
  2372   2052   2053      1
  2373   2052   2054      1
  2374   2053   2055      1
  2375   2054   2438      1
  2376   2055   2056      1
  2377   2056   2059      1
  2378   2056   2442      1
  2379   2058   2059      1
  2380   2059   2061      1
  2381   2060   2061      1
  2382   2060   2445      1
  2383   2060   2448      1
  2384   2061   2063      1
  2385   2063   2064      1
  2386   2063   2065      1
  2387   2066   2067      1
  2388   2066   2070      1
  2389   2067   2069      1
  2390   2067   2130      1
  2391   2068   2069      1
  2392   2069   2071      1
  2393   2070   2073      1
  2394   2070   2135      1
  2395   2071   2072      1
  2396   2071   2454      1
  2397   2072   2409      1
  2398   2073   2075      1
  2399   2074   2075      1
  2400   2075   2078      1
  2401   2076   2077      1
  2402   2076   2454      1
  2403   2076   2459      1
  2404   2078   2079      1
  2405   2078   2081      1
  2406   2079   2080      1
  2407   2080   2412      1
  2408   2081   2083      1
  2409   2081   2142      1
  2410   2082   2459      1
  2411   2084   2086      1
  2412   2085   2086      1
  2413   2086   2087      1
  2414   2086   2462      1
  2415   2087   2088      1
  2416   2087   2089      1
  2417   2087   2468      1
  2418   2092   2154      1
  2419   2094   2096      1
  2420   2095   2098      1
  2421   2096   2098      1
  2422   2096   2100      1
  2423   2097   2099      1
  2424   2098   2099      1
  2425   2098   2165      1
  2426   2099   2478      1
  2427   2100   2101      1
  2428   2102   2107      1
  2429   2102   2165      1
  2430   2102   2484      1
  2431   2103   2105      1
  2432   2106   2109      1
  2433   2106   2436      1
  2434   2107   2108      1
  2435   2107   2171      1
  2436   2109   2110      1
  2437   2110   2111      1
  2438   2110   2112      1
  2439   2111   2114      1
  2440   2113   2115      1
  2441   2114   2115      1
  2442   2115   2117      1
  2443   2115   2118      1
  2444   2116   2492      1
  2445   2118   2119      1
  2446   2118   2182      1
  2447   2119   2120      1
  2448   2119   2121      1
  2449   2120   2122      1
  2450   2121   2123      1
  2451   2121   2185      1
  2452   2121   2498      1
  2453   2124   2126      1
  2454   2125   2500      1
  2455   2126   2127      1
  2456   2126   2128      1
  2457   2127   2194      1
  2458   2128   2131      1
  2459   2129   2131      1
  2460   2130   2133      1
  2461   2130   2505      1
  2462   2131   2132      1
  2463   2132   2136      1
  2464   2132   2195      1
  2465   2133   2134      1
  2466   2133   2135      1
  2467   2134   2137      1
  2468   2134   2508      1
  2469   2135   2139      1
  2470   2136   2140      1
  2471   2137   2138      1
  2472   2137   2513      1
  2473   2138   2140      1
  2474   2138   2198      1
  2475   2140   2141      1
  2476   2143   2146      1
  2477   2144   2147      1
  2478   2146   2147      1
  2479   2146   2205      1
  2480   2147   2148      1
  2481   2148   2206      1
  2482   2148   2521      1
  2483   2149   2152      1
  2484   2150   2153      1
  2485   2150   2209      1
  2486   2151   2152      1
  2487   2151   2467      1
  2488   2152   2154      1
  2489   2152   2155      1
  2490   2153   2154      1
  2491   2156   2157      1
  2492   2156   2217      1
  2493   2157   2158      1
  2494   2157   2161      1
  2495   2158   2162      1
  2496   2159   2160      1
  2497   2159   2161      1
  2498   2161   2163      1
  2499   2162   2163      1
  2500   2162   2221      1
  2501   2163   2166      1
  2502   2164   2165      1
  2503   2165   2532      1
  2504   2166   2167      1
  2505   2166   2168      1
  2506   2168   2170      1
  2507   2168   2223      1
  2508   2169   2170      1
  2509   2169   2171      1
  2510   2169   2533      1
  2511   2170   2175      1
  2512   2171   2173      1
  2513   2174   2176      1
  2514   2175   2176      1
  2515   2175   2177      1
  2516   2176   2178      1
  2517   2177   2537      1
  2518   2177   2541      1
  2519   2178   2180      1
  2520   2179   2181      1
  2521   2179   2182      1
  2522   2179   2540      1
  2523   2181   2183      1
  2524   2181   2541      1
  2525   2182   2185      1
  2526   2183   2184      1
  2527   2183   2187      1
  2528   2184   2235      1
  2529   2184   2238      1
  2530   2184   2239      1
  2531   2185   2187      1
  2532   2186   2189      1
  2533   2186   2238      1
  2534   2187   2188      1
  2535   2188   2189      1
  2536   2188   2190      1
  2537   2189   2191      1
  2538   2191   2192      1
  2539   2193   2194      1
  2540   2194   2195      1
  2541   2195   2198      1
  2542   2196   2197      1
  2543   2197   2199      1
  2544   2197   2200      1
  2545   2197   2251      1
  2546   2198   2199      1
  2547   2199   2552      1
  2548   2201   2202      1
  2549   2202   2204      1
  2550   2203   2204      1
  2551   2203   2259      1
  2552   2203   2559      1
  2553   2204   2205      1
  2554   2205   2206      1
  2555   2206   2208      1
  2556   2206   2560      1
  2557   2207   2211      1
  2558   2210   2211      1
  2559   2210   2212      1
  2560   2210   2267      1
  2561   2211   2213      1
  2562   2215   2216      1
  2563   2216   2217      1
  2564   2216   2218      1
  2565   2218   2219      1
  2566   2219   2220      1
  2567   2219   2221      1
  2568   2219   2575      1
  2569   2221   2223      1
  2570   2223   2225      1
  2571   2224   2225      1
  2572   2224   2227      1
  2573   2224   2577      1
  2574   2225   2228      1
  2575   2226   2229      1
  2576   2227   2230      1
  2577   2229   2230      1
  2578   2230   2232      1
  2579   2231   2233      1
  2580   2232   2233      1
  2581   2233   2234      1
  2582   2234   2235      1
  2583   2234   2236      1
  2584   2235   2541      1
  2585   2235   2586      1
  2586   2236   2237      1
  2587   2237   2238      1
  2588   2237   2241      1
  2589   2240   2242      1
  2590   2241   2243      1
  2591   2242   2244      1
  2592   2242   2594      1
  2593   2243   2244      1
  2594   2243   2245      1
  2595   2244   2246      1
  2596   2245   2247      1
  2597   2246   2248      1
  2598   2246   2597      1
  2599   2247   2249      1
  2600   2248   2249      1
  2601   2248   2250      1
  2602   2250   2251      1
  2603   2250   2606      1
  2604   2251   2252      1
  2605   2251   2607      1
  2606   2252   2253      1
  2607   2252   2258      1
  2608   2253   2254      1
  2609   2253   2608      1
  2610   2254   2256      1
  2611   2255   2257      1
  2612   2256   2257      1
  2613   2257   2260      1
  2614   2258   2259      1
  2615   2258   2260      1
  2616   2260   2262      1
  2617   2261   2262      1
  2618   2261   2263      1
  2619   2262   2265      1
  2620   2263   2264      1
  2621   2264   2266      1
  2622   2264   2617      1
  2623   2265   2267      1
  2624   2266   2267      1
  2625   2266   2621      1
  2626   2268   2269      1
  2627   2270   2271      1
  2628   2271   2272      1
  2629   2271   2273      1
  2630   2271   2623      1
  2631   2272   2274      1
  2632   2276   2277      1
  2633   2277   2279      1
  2634   2278   2280      1
  2635   2279   2280      1
  2636   2279   2282      1
  2637   2280   2281      1
  2638   2280   2283      1
  2639   2284   2287      1
  2640   2285   2288      1
  2641   2286   2288      1
  2642   2288   2290      1
  2643   2289   2290      1
  2644   2289   2293      1
  2645   2290   2292      1
  2646   2290   2294      1
  2647   2291   2293      1
  2648   2291   2294      1
  2649   2291   2346      1
  2650   2295   2296      1
  2651   2296   2297      1
  2652   2297   2298      1
  2653   2297   2300      1
  2654   2298   2299      1
  2655   2298   2355      1
  2656   2299   2354      1
  2657   2300   2302      1
  2658   2301   2303      1
  2659   2302   2303      1
  2660   2303   2304      1
  2661   2304   2364      1
  2662   2305   2306      1
  2663   2306   2307      1
  2664   2308   2310      1
  2665   2309   2310      1
  2666   2309   2364      1
  2667   2309   2366      1
  2668   2310   2311      1
  2669   2310   2312      1
  2670   2316   2317      1
  2671   2317   2319      1
  2672   2319   2321      1
  2673   2319   2373      1
  2674   2320   2321      1
  2675   2321   2322      1
  2676   2322   2323      1
  2677   2323   2324      1
  2678   2323   2325      1
  2679   2325   2326      1
  2680   2325   2327      1
  2681   2328   2329      1
  2682   2329   2330      1
  2683   2331   2333      1
  2684   2332   2335      1
  2685   2333   2334      1
  2686   2333   2382      1
  2687   2335   2337      1
  2688   2338   2384      1
  2689   2339   2340      1
  2690   2340   2341      1
  2691   2340   2342      1
  2692   2342   2343      1
  2693   2343   2389      1
  2694   2344   2345      1
  2695   2344   2392      1
  2696   2345   2348      1
  2697   2346   2347      1
  2698   2346   2348      1
  2699   2347   2350      1
  2700   2348   2349      1
  2701   2351   2352      1
  2702   2351   2353      1
  2703   2352   2356      1
  2704   2352   2399      1
  2705   2353   2355      1
  2706   2355   2358      1
  2707   2356   2357      1
  2708   2357   2359      1
  2709   2357   2361      1
  2710   2358   2360      1
  2711   2359   2362      1
  2712   2360   2361      1
  2713   2361   2363      1
  2714   2362   2363      1
  2715   2363   2364      1
  2716   2366   2368      1
  2717   2367   2368      1
  2718   2367   2369      1
  2719   2368   2370      1
  2720   2370   2371      1
  2721   2371   2372      1
  2722   2372   2374      1
  2723   2372   2413      1
  2724   2376   2377      1
  2725   2377   2378      1
  2726   2378   2419      1
  2727   2379   2419      1
  2728   2381   2423      1
  2729   2381   2426      1
  2730   2382   2383      1
  2731   2384   2385      1
  2732   2384   2387      1
  2733   2385   2389      1
  2734   2386   2432      1
  2735   2388   2390      1
  2736   2388   2432      1
  2737   2390   2391      1
  2738   2392   2393      1
  2739   2393   2394      1
  2740   2394   2397      1
  2741   2395   2396      1
  2742   2396   2397      1
  2743   2397   2439      1
  2744   2400   2401      1
  2745   2401   2402      1
  2746   2401   2449      1
  2747   2402   2403      1
  2748   2403   2404      1
  2749   2403   2406      1
  2750   2404   2405      1
  2751   2405   2407      1
  2752   2408   2409      1
  2753   2409   2410      1
  2754   2410   2411      1
  2755   2410   2412      1
  2756   2411   2413      1
  2757   2412   2415      1
  2758   2413   2414      1
  2759   2414   2415      1
  2760   2414   2417      1
  2761   2415   2462      1
  2762   2418   2419      1
  2763   2418   2420      1
  2764   2420   2421      1
  2765   2420   2466      1
  2766   2424   2471      1
  2767   2425   2428      1
  2768   2425   2472      1
  2769   2426   2429      1
  2770   2426   2471      1
  2771   2427   2430      1
  2772   2428   2429      1
  2773   2428   2430      1
  2774   2431   2477      1
  2775   2433   2435      1
  2776   2434   2480      1
  2777   2435   2436      1
  2778   2436   2437      1
  2779   2436   2481      1
  2780   2438   2439      1
  2781   2438   2442      1
  2782   2439   2440      1
  2783   2440   2443      1
  2784   2441   2442      1
  2785   2442   2445      1
  2786   2443   2444      1
  2787   2444   2494      1
  2788   2445   2446      1
  2789   2447   2450      1
  2790   2449   2450      1
  2791   2450   2451      1
  2792   2452   2505      1
  2793   2453   2455      1
  2794   2454   2455      1
  2795   2455   2456      1
  2796   2456   2457      1
  2797   2456   2458      1
  2798   2458   2459      1
  2799   2458   2460      1
  2800   2460   2461      1
  2801   2460   2520      1
  2802   2462   2464      1
  2803   2463   2467      1
  2804   2463   2520      1
  2805   2464   2466      1
  2806   2465   2466      1
  2807   2467   2468      1
  2808   2468   2469      1
  2809   2469   2470      1
  2810   2472   2474      1
  2811   2474   2477      1
  2812   2476   2478      1
  2813   2477   2478      1
  2814   2479   2482      1
  2815   2479   2531      1
  2816   2480   2483      1
  2817   2481   2483      1
  2818   2481   2484      1
  2819   2482   2483      1
  2820   2482   2485      1
  2821   2484   2486      1
  2822   2485   2487      1
  2823   2485   2535      1
  2824   2487   2488      1
  2825   2489   2540      1
  2826   2490   2492      1
  2827   2491   2492      1
  2828   2492   2493      1
  2829   2493   2497      1
  2830   2493   2498      1
  2831   2494   2495      1
  2832   2494   2497      1
  2833   2495   2496      1
  2834   2496   2545      1
  2835   2496   2546      1
  2836   2497   2499      1
  2837   2498   2500      1
  2838   2499   2500      1
  2839   2499   2501      1
  2840   2502   2503      1
  2841   2503   2504      1
  2842   2503   2506      1
  2843   2504   2507      1
  2844   2504   2508      1
  2845   2505   2508      1
  2846   2506   2509      1
  2847   2507   2511      1
  2848   2507   2550      1
  2849   2510   2511      1
  2850   2511   2512      1
  2851   2512   2516      1
  2852   2512   2553      1
  2853   2514   2517      1
  2854   2515   2517      1
  2855   2516   2517      1
  2856   2516   2558      1
  2857   2517   2518      1
  2858   2518   2519      1
  2859   2518   2520      1
  2860   2518   2521      1
  2861   2519   2521      1
  2862   2519   2561      1
  2863   2522   2523      1
  2864   2522   2525      1
  2865   2523   2524      1
  2866   2526   2569      1
  2867   2527   2528      1
  2868   2529   2530      1
  2869   2531   2532      1
  2870   2532   2533      1
  2871   2533   2534      1
  2872   2534   2580      1
  2873   2535   2538      1
  2874   2536   2537      1
  2875   2537   2539      1
  2876   2540   2542      1
  2877   2542   2544      1
  2878   2543   2544      1
  2879   2544   2545      1
  2880   2545   2546      1
  2881   2547   2549      1
  2882   2547   2598      1
  2883   2547   2603      1
  2884   2548   2601      1
  2885   2551   2552      1
  2886   2552   2553      1
  2887   2554   2555      1
  2888   2555   2612      1
  2889   2556   2558      1
  2890   2557   2559      1
  2891   2558   2561      1
  2892   2559   2560      1
  2893   2560   2563      1
  2894   2561   2563      1
  2895   2562   2564      1
  2896   2562   2565      1
  2897   2563   2564      1
  2898   2564   2565      1
  2899   2565   2566      1
  2900   2566   2568      1
  2901   2566   2624      1
  2902   2567   2569      1
  2903   2568   2569      1
  2904   2568   2570      1
  2905   2571   2572      1
  2906   2572   2573      1
  2907   2573   2574      1
  2908   2573   2576      1
  2909   2576   2578      1
  2910   2576   2579      1
  2911   2577   2579      1
  2912   2579   2581      1
  2913   2580   2581      1
  2914   2581   2582      1
  2915   2584   2585      1
  2916   2585   2586      1
  2917   2586   2589      1
  2918   2588   2589      1
  2919   2588   2592      1
  2920   2589   2591      1
  2921   2590   2593      1
  2922   2591   2594      1
  2923   2591   2595      1
  2924   2592   2595      1
  2925   2593   2596      1
  2926   2594   2597      1
  2927   2595   2598      1
  2928   2596   2599      1
  2929   2597   2601      1
  2930   2598   2601      1
  2931   2599   2602      1
  2932   2600   2602      1
  2933   2602   2604      1
  2934   2604   2605      1
  2935   2604   2606      1
  2936   2606   2608      1
  2937   2608   2609      1
  2938   2610   2611      1
  2939   2611   2613      1
  2940   2611   2614      1
  2941   2612   2614      1
  2942   2613   2615      1
  2943   2614   2616      1
  2944   2615   2617      1
  2945   2617   2619      1
  2946   2618   2620      1
  2947   2619   2620      1
  2948   2619   2621      1
  2949   2620   2622      1
  2950   2621   2623      1
  2951   2622   2624      1
  2952   2623   2625      1
  2953   2623   2626      1
  2954   2625   2627      1
  2955   2629   2630     du
  2956   2630   2631     du
  2957   2631   2632     du
  2958   2632   2629     du
  2959   2633   2634     du
  2960   2634   2635     du
  2961   2635   2636     du
  2962   2636   2633     du
  2963   2632   2636     du
  2964   2633   2629     du
  2965   2631   2635     du
  2966   2634   2630     du
