@<TRIPOS>MOLECULE
LAMMPS data file via write_data, version 29 Oct 2020, timestep = 100 > lmp2SYBYLmol2 v3.0 / 24 May 2023 w/remove_PBC_bonds=True
  3208 3290    0    0    0
SMALL
NO_CHARGES
****
Energy = 0

@<TRIPOS>ATOM
      1 C          -17.2599   -11.2883   -15.4722 C       1      m1    -0.0209
      2 C          -16.8715   -12.4919   -16.0098 C       1      m1     0.0017
      3 C          -16.2058   -14.8418   -14.6824 C       1      m1     0.0365
      4 C          -15.9857   -13.3693   -15.1549 C       1      m1     0.0084
      5 H          -15.8861    15.0769   -14.1133 H       1      m1     0.0520
      6 C          -15.3647   -11.4178   -13.8887 C       1      m1    -0.0179
      7 H          -14.7744   -10.8450   -13.2112 H       1      m1     0.0204
      8 C          -15.0463   -12.7500   -14.3149 C       1      m1     0.0154
      9 C          -13.2878   -12.9405   -14.3773 C       1      m1    -0.0339
     10 H          -13.6834   -14.0766   -16.8269 H       1      m1     0.0504
     11 H          -12.9664   -12.1169   -13.6255 H       1      m1     0.0208
     12 C          -12.4266   -13.4080   -15.5966 C       1      m1     0.0385
     13 C          -11.7651   -11.2989   -12.4601 C       1      m1     0.0090
     14 C          -11.2158   -12.5702   -15.8046 C       1      m1     0.0074
     15 C          -10.2450   -11.7698   -16.3787 C       1      m1     0.1595
     16 H          -10.0004   -11.0633   -13.4385 H       1      m1     0.0352
     17 C           -9.8996   -14.8228   -14.4236 C       1      m1    -0.0573
     18 C           -8.7040   -13.8656   -14.4953 C       1      m1     0.3106
     19 H           -8.9628   -13.3254   -13.7459 H       1      m1    -0.0281
     20 O           -8.0078   -13.5445   -15.5750 O       1      m1    -0.4815
     21 H           -5.9128   -12.1411   -15.5514 H       1      m1     0.0851
     22 O           -6.0558   -11.9035   -12.6831 O       1      m1    -0.4579
     23 C           -5.7213   -12.1065   -16.5590 C       1      m1     0.0058
     24 C           -4.9905   -14.4561   -16.1442 C       1      m1    -0.0049
     25 C           -4.6884   -11.0930   -12.8367 C       1      m1     0.1461
     26 C           -4.8277   -12.7435   -12.6397 C       1      m1     0.2044
     27 C           -4.9469   -14.6922   -14.5676 C       1      m1     0.0174
     28 C           -4.2056   -11.9354   -16.5715 C       1      m1    -0.0210
     29 H           -4.0479   -13.9134   -16.2565 H       1      m1     0.0190
     30 C           -3.6892   -13.4032   -12.6650 C       1      m1    -0.0781
     31 H           -3.6263   -11.6933   -11.2870 H       1      m1     0.0173
     32 C           -3.0878   -11.8618   -15.6690 C       1      m1     0.0441
     33 H           -3.0975   -12.7821   -15.0194 H       1      m1     0.0283
     34 C           -2.9986   -14.3150   -12.0826 C       1      m1     0.0187
     35 C           -1.8559   -11.1427   -15.9334 C       1      m1    -0.0499
     36 H           -1.4086   -11.5078   -12.9655 H       1      m1     0.0396
     37 H           -0.7316   -11.1790   -15.8527 H       1      m1     0.0311
     38 C           -0.8661   -13.7218   -13.0952 C       1      m1     0.1010
     39 C           -0.8986   -12.3769   -12.3570 C       1      m1    -0.0330
     40 O           -0.3195   -14.0922   -14.6084 O       1      m1    -0.4102
     41 C            0.1895   -14.4410   -13.1640 C       1      m1     0.1569
     42 H            1.2136   -12.5084    16.5093 H       1      m1     0.0338
     43 C            1.1219   -14.7012   -12.1007 C       1      m1    -0.0427
     44 C            1.9457   -12.0682   -12.5325 C       1      m1     0.0047
     45 C            2.2375   -13.6869   -12.0660 C       1      m1     0.0213
     46 H            5.2610   -11.9128   -12.2861 H       1      m1     0.0187
     47 H            5.1255   -14.0343   -12.1057 H       1      m1     0.0196
     48 C            5.9279   -12.0349   -15.9206 C       1      m1     0.0064
     49 C            5.9577   -14.6793   -16.6021 C       1      m1     0.0210
     50 H            5.9595   -14.9169   -14.1661 H       1      m1     0.0321
     51 H            6.4071   -12.1520   -14.9767 H       1      m1     0.0290
     52 C            6.6120   -14.7866   -15.2487 C       1      m1    -0.0124
     53 H            6.8181   -11.3751   -11.8262 H       1      m1     0.0180
     54 C            7.5237   -13.7071   -15.1925 C       1      m1    -0.0151
     55 H            8.5062   -10.8773   -11.9749 H       1      m1     0.0172
     56 C            8.7997   -14.1611   -16.2644 C       1      m1    -0.0073
     57 C            8.9814   -13.0314   -15.1605 C       1      m1     0.0027
     58 H            9.9088   -11.9570   -13.3759 H       1      m1     0.0250
     59 C            9.8637   -12.7042   -13.9994 C       1      m1    -0.0295
     60 C           10.1132   -14.9186   -16.3579 C       1      m1    -0.0216
     61 C           10.9091   -13.7802   -14.3393 C       1      m1    -0.0026
     62 C           11.1093   -14.2165   -15.6656 C       1      m1    -0.0050
     63 C           11.9167   -14.3231   -13.6542 C       1      m1    -0.0029
     64 C           12.3269   -11.9345   -12.1107 C       1      m1     0.0092
     65 C           12.7836   -14.1857   -15.9412 C       1      m1    -0.0002
     66 C           12.5317   -14.4496   -12.4767 C       1      m1    -0.0058
     67 C           12.5960   -11.5975   -13.8069 C       1      m1    -0.0317
     68 H           12.8335   -12.3009   -14.5757 H       1      m1     0.0285
     69 C           13.4939   -13.4497    16.7893 C       1      m1    -0.0229
     70 C           14.9718   -14.0292    16.7703 C       1      m1     0.0130
     71 C           15.7530   -12.7177   -11.9409 C       1      m1    -0.0843
     72 H           15.8271   -11.8592   -12.5517 H       1      m1     0.0430
     73 C           16.1515   -14.0773   -12.2143 C       1      m1     0.2956
     74 O           17.1881   -14.6274   -12.9171 O       1      m1    -0.4367
     75 C           17.3692   -14.9284   -16.7683 C       1      m1     0.0006
     76 H           17.0426    -8.6194   -15.3091 H       1      m1     0.0102
     77 C          -16.8957    -8.7109   -12.1322 C       1      m1    -0.0096
     78 H          -16.7040    -9.8019   -14.1101 H       1      m1     0.0150
     79 C          -16.8405    -7.6561   -13.3135 C       1      m1    -0.0171
     80 C          -16.6332   -10.9033   -14.2260 C       1      m1    -0.0057
     81 C          -15.9866    -7.6320   -16.6457 C       1      m1     0.0122
     82 C          -15.4502    -7.3665   -14.0420 C       1      m1     0.0011
     83 C          -15.0826    -7.3511   -15.3734 C       1      m1     0.0133
     84 C          -13.6824    -8.0014   -15.1632 C       1      m1     0.0056
     85 C          -13.6895    -9.4783   -14.7248 C       1      m1    -0.0032
     86 C          -13.2230    -9.9800   -13.9020 C       1      m1    -0.0161
     87 C          -12.9163   -10.5203   -12.4716 C       1      m1    -0.0134
     88 C          -12.8012    -7.0714   -14.4410 C       1      m1    -0.0081
     89 H          -10.8255    -9.6066   -12.8552 H       1      m1     0.0260
     90 C          -10.8037   -10.6602   -12.9411 C       1      m1    -0.0449
     91 C           -9.7323   -10.4192   -16.4934 C       1      m1     0.1881
     92 C           -9.3042    -9.7704   -15.3172 C       1      m1    -0.0469
     93 H           -8.7955    -6.7173   -13.2604 H       1      m1     0.0106
     94 C           -8.5671    -8.8852   -14.4301 C       1      m1    -0.0110
     95 C           -8.5297    -7.5701   -12.4302 C       1      m1    -0.0181
     96 C           -8.5176    -8.7708   -12.8684 C       1      m1    -0.0169
     97 H           -8.1696    -9.6072   -12.1029 H       1      m1     0.0401
     98 H           -7.6362    -9.1606   -14.6161 H       1      m1     0.0404
     99 H           -5.3044    -7.8331   -15.1396 H       1      m1     0.0680
    100 C           -5.1491    -8.4861   -13.2499 C       1      m1     0.0172
    101 C           -4.9174    -9.8899   -12.4286 C       1      m1     0.0022
    102 C           -4.3765    -7.2300   -15.3815 C       1      m1    -0.1129
    103 C           -3.9821    -7.6403   -13.4131 C       1      m1    -0.0448
    104 O           -3.4837    -9.3231   -15.8481 O       1      m1    -0.4790
    105 C           -3.2848    -7.7387   -15.5955 C       1      m1     0.1821
    106 H           -3.1321    -7.5940   -13.7890 H       1      m1     0.0413
    107 C           -2.3922    -6.8293   -15.9881 C       1      m1     0.1040
    108 C           -2.0895    -9.8212   -16.3065 C       1      m1     0.2038
    109 C           -1.1899    -7.3352   -16.6763 C       1      m1    -0.0066
    110 H           -1.3947    -7.8671   -14.4071 H       1      m1     0.0243
    111 C           -0.5924    -8.4927   -13.9195 C       1      m1     0.0053
    112 H            0.4842    -9.2548   -15.5042 H       1      m1     0.0191
    113 C            0.3377    -9.6233   -14.3733 C       1      m1    -0.0193
    114 C            0.7777    -8.4770   -13.5290 C       1      m1    -0.0009
    115 C            1.8061    -8.9229   -12.3194 C       1      m1    -0.0146
    116 H            2.3165    -9.6823   -13.0478 H       1      m1     0.0203
    117 H            3.1513   -11.3216   -15.2602 H       1      m1     0.0411
    118 C            3.3992    -6.6225   -14.2684 C       1      m1     0.0029
    119 C            3.7107    -8.0186   -14.2239 C       1      m1     0.0026
    120 C            4.0106   -10.6818   -14.7983 C       1      m1    -0.0532
    121 C            4.1384    -9.3402   -14.3096 C       1      m1    -0.0034
    122 C            5.0848   -10.7201   -15.8630 C       1      m1     0.1518
    123 H            5.3801    -6.9957   -12.6140 H       1      m1     0.0221
    124 H            5.3082    -9.6759   -14.1358 H       1      m1     0.0140
    125 H            6.4935    -9.2561   -15.0705 H       1      m1     0.2457
    126 C            6.4686    -7.1152   -12.9191 C       1      m1    -0.0289
    127 O            6.5908    -9.7417   -15.9899 O       1      m1    -0.5540
    128 C            6.6183   -10.3525   -12.0668 C       1      m1    -0.0291
    129 H            6.7025    -7.5352   -14.0072 H       1      m1     0.0849
    130 C            7.7757   -10.2277   -12.9529 C       1      m1    -0.0034
    131 C            8.9833    -9.2784   -12.5012 C       1      m1     0.0045
    132 H            9.8066    -6.9054   -14.3567 H       1      m1     0.3453
    133 H           10.7087   -10.2620   -14.7657 H       1      m1     0.0369
    134 O           10.5146    -7.2672   -14.6355 O       1      m1    -0.6874
    135 C           10.2735    -7.6962   -16.0536 C       1      m1     0.2931
    136 C           10.6375   -10.2111   -15.9658 C       1      m1     0.0452
    137 C           10.8778    -9.0089   -16.6795 C       1      m1    -0.0770
    138 C           12.6366   -10.2821   -13.2941 C       1      m1     0.0335
    139 C           14.6857    -6.9581   -15.1033 C       1      m1     0.0206
    140 C           15.1370    -7.2923   -16.4975 C       1      m1    -0.0192
    141 H           15.6225    -8.3005   -13.7602 H       1      m1     0.0223
    142 C           15.9708    -7.5217   -14.4764 C       1      m1    -0.0226
    143 C           17.4498    -7.8551   -14.5761 C       1      m1    -0.0149
    144 H          -16.9920    -6.5970   -12.8796 H       1      m1     0.0315
    145 H           17.0512   -10.6768   -15.6258 H       1      m1     0.0132
    146 H           16.8588    -3.0042   -15.3361 H       1      m1    -0.0096
    147 H          -17.5081    -5.8721   -16.5463 H       1      m1     0.0334
    148 C          -17.4551    -2.6100   -15.1053 C       1      m1     0.1792
    149 O          -16.2428    -3.3234   -14.3615 O       1      m1    -0.4327
    150 C          -16.4804    -2.6114   -12.6232 C       1      m1     0.1461
    151 C          -14.9618    -6.5351   -12.8534 C       1      m1    -0.0048
    152 H          -15.2984    -3.6672   -16.5010 H       1      m1     0.0331
    153 H          -14.0964    -4.7408   -14.6687 H       1      m1     0.0520
    154 H          -13.8977    -6.5028   -12.6657 H       1      m1     0.0188
    155 C          -13.7586    -2.7596   -16.3516 C       1      m1    -0.0729
    156 C          -13.4296    -2.5519   -14.8663 C       1      m1     0.0458
    157 C          -13.0021    -4.7543   -14.2922 C       1      m1    -0.0213
    158 C          -12.8478    -2.6043   -13.6195 C       1      m1     0.0340
    159 C          -12.9668    -2.3441   -12.1187 C       1      m1    -0.0387
    160 C          -12.2147    -3.8517   -13.4896 C       1      m1    -0.0002
    161 C          -12.1409    -5.9159   -14.1000 C       1      m1     0.0045
    162 C          -11.3708    -4.6176   -12.6723 C       1      m1    -0.0006
    163 C          -10.4529    -5.5408   -13.7755 C       1      m1    -0.0262
    164 C           -9.7213    -4.9411   -14.9417 C       1      m1    -0.0069
    165 H           -9.7592    -5.2037   -12.8812 H       1      m1     0.0146
    166 C           -9.5986    -5.8352   -16.2247 C       1      m1    -0.0202
    167 C           -9.2381    -3.4634   -14.8222 C       1      m1    -0.0228
    168 H           -8.6719    -3.4122   -15.8047 H       1      m1     0.0252
    169 H           -9.0174    -6.4733   -15.4598 H       1      m1     0.0167
    170 C           -5.0531    -5.1567   -14.5969 C       1      m1    -0.0326
    171 C           -5.1036    -4.3687   -13.2852 C       1      m1     0.0229
    172 C           -4.1486    -5.8395   -15.4802 C       1      m1     0.2414
    173 H           -2.3582    -3.0923   -13.6068 H       1      m1     0.0326
    174 O           -2.8553    -5.2257   -15.7662 O       1      m1    -0.4747
    175 C           -2.4275    -2.3630   -14.5381 C       1      m1    -0.0253
    176 H           -2.2737    -2.6240   -15.5903 H       1      m1     0.0531
    177 H           -0.4103    -5.5443   -11.9482 H       1      m1     0.0334
    178 C           -0.3784    -3.9029   -13.4392 C       7      m7     0.3654
    179 C            0.2714    -6.0064   -15.6588 C       1      m1     0.0197
    180 O            0.1564    -3.2380   -12.6664 O       7      m7    -0.5682
    181 H            0.6803    -6.6181   -13.6087 H       1      m1     0.0332
    182 C            0.6930    -5.9733   -14.4942 C       1      m1    -0.0544
    183 H            1.2039    -5.0191   -14.4449 H       1      m1     0.0327
    184 C            3.5536    -5.4729   -14.5018 C       1      m1     0.0104
    185 C            3.9208    -4.5445   -15.1336 C       1      m1     0.0094
    186 C            4.7937    -3.3996   -15.5215 C       1      m1     0.0006
    187 C            5.7970    -2.6165   -14.6059 C       1      m1    -0.0015
    188 C            6.4040    -4.7863   -16.5440 C       1      m1     0.0709
    189 O            6.7745    -6.2959   -15.5859 O       1      m1    -0.4377
    190 C            6.8589    -4.7757   -15.2142 C       1      m1     0.1734
    191 C            6.7337    -3.8433   -14.1530 C       1      m1    -0.0438
    192 C            7.1209    -3.9782   -12.7206 C       1      m1     0.0145
    193 C            7.1293    -6.4126   -12.1441 C       1      m1     0.0086
    194 C            9.0472    -2.2826   -15.2479 C       1      m1    -0.0017
    195 C            9.9870    -2.8622   -15.9359 C       1      m1    -0.0025
    196 C           11.3462    -3.2217   -15.7096 C       1      m1    -0.0063
    197 H           11.6417    -3.7608   -16.6793 H       1      m1     0.0215
    198 H           12.0742    -4.7927   -10.9550 H       1      m1     0.0284
    199 C           12.5689    -2.4680   -15.1342 C       1      m1    -0.0194
    200 C           12.3393    -4.1174   -11.9164 C       1      m1    -0.0309
    201 C           12.9191    -4.4119   -13.3362 C       1      m1     0.0146
    202 C           13.6523    -4.8236   -14.4494 C       1      m1     0.0127
    203 C           13.6631    -2.3125   -15.8902 C       1      m1    -0.0026
    204 C           14.4925    -5.5415   -15.1184 C       1      m1     0.0029
    205 C           14.8079    -2.3595   -16.4762 C       1      m1    -0.0267
    206 C           15.1115    -4.9641   -16.4707 C       1      m1    -0.0024
    207 C           16.7462    -5.1595   -12.1610 C       1      m1     0.0021
    208 C          -17.5365     0.8643   -13.0015 C       1      m1     0.0044
    209 C          -17.2259    -1.7019   -12.1919 C       1      m1    -0.0459
    210 C          -17.1663     1.6840   -11.8260 C       1      m1     0.0069
    211 H          -16.9836    -2.3489   -15.9862 H       1      m1     0.0155
    212 H          -15.2190     2.6181   -12.2860 H       1      m1     0.0402
    213 C          -14.9182    -1.7730   -16.6253 C       1      m1     0.0169
    214 H          -13.9204    -0.9988   -16.1496 H       1      m1     0.0367
    215 O          -13.8181     0.1479   -12.2653 O       1      m1    -0.6194
    216 H          -11.9824    -1.8938   -16.6745 H       1      m1     0.0252
    217 H          -10.8280     0.0823   -15.1089 H       1      m1     0.0366
    218 C           -9.7330    -0.6797   -15.0248 C       1      m1    -0.0614
    219 C           -9.8472    -2.1196   -14.9078 C       1      m1     0.0116
    220 C           -8.2087    -0.3663   -14.7549 C       1      m1     0.2463
    221 H           -8.0144     0.1372   -16.7452 H       1      m1     0.2267
    222 C           -7.8719    -0.5185   -13.3616 C       1      m1    -0.0494
    223 H           -7.5668     1.1786   -12.7716 H       1      m1     0.0490
    224 C           -7.7571    -1.6916   -12.3502 C       1      m1     0.0263
    225 O           -7.3506     0.0994   -15.9199 O       1      m1    -0.5836
    226 C           -6.9473     0.3725   -12.4823 C       1      m1    -0.0055
    227 H           -3.7399     0.8805   -13.7810 H       1      m1     0.0321
    228 C           -3.9789    -1.0203   -15.9149 C       1      m1     0.0001
    229 C           -3.5016    -1.1428   -14.5478 C       1      m1     0.0127
    230 C           -3.7233    -0.2445   -13.5013 C       1      m1    -0.0139
    231 C           -3.2234    -0.6403   -12.4233 C       1      m1    -0.0044
    232 C           -3.0144     1.6023   -16.6299 C       1      m1    -0.0109
    233 H           -3.2062    -1.1026    16.8310 H       1      m1     0.0130
    234 H           -2.2452     0.8249   -16.4533 H       1      m1     0.0228
    235 H           -0.8973    -1.6421   -13.0383 H       1      m1     0.0866
    236 C           -1.2787    -1.3286   -14.2220 C       1      m1    -0.0164
    237 H           -0.2256     0.1975   -14.9140 H       1      m1     0.0290
    238 C           -1.0200    -0.6710   -15.4272 C       1      m1    -0.0151
    239 H            1.3515     2.3018   -16.4944 H       1      m1     0.0332
    240 C            2.0298     1.5148   -16.8138 C       1      m1    -0.0618
    241 C            2.6065     0.7339   -15.5633 C       1      m1    -0.0043
    242 C            2.9445     1.1220   -14.3030 C       1      m1     0.0031
    243 H            3.5008     0.1493   -16.1289 H       1      m1     0.0162
    244 C            3.4004     1.0136   -13.0913 C       1      m1     0.0025
    245 C            4.7269     2.3053   -12.8243 C       1      m1    -0.0058
    246 C            5.3662    -1.7468   -12.0059 C       1      m1    -0.0188
    247 C            5.0958    -2.1692   -13.5085 C       1      m1     0.0114
    248 H            6.3020    -1.3061   -12.2829 H       1      m1     0.0184
    249 C            8.6119    -1.7061   -16.2341 C       1      m1    -0.0161
    250 H            9.7777     0.0063   -14.1427 H       1      m1     0.0225
    251 C           10.5900     1.9362   -15.1848 C       1      m1    -0.0088
    252 H           11.2318     2.3097   -12.9648 H       1      m1     0.0185
    253 C           10.7259     0.4845   -14.4171 C       1      m1    -0.0279
    254 C           10.9643     1.2108   -13.0872 C       1      m1    -0.0190
    255 H           11.6800    -0.3264   -14.3260 H       1      m1     0.0163
    256 H           12.6438    -1.9448   -13.9820 H       1      m1     0.0132
    257 H           15.6847    -1.6958   -16.3596 H       1      m1     0.0098
    258 C           15.7511     1.9843   -14.6416 C       1      m1    -0.0067
    259 H           16.0227    -1.3633   -14.0034 H       1      m1     0.0181
    260 C           16.7535     1.5415   -13.9228 C       1      m1    -0.0093
    261 C           17.1377    -1.3376   -14.3091 C       1      m1    -0.0502
    262 H           17.1487    -0.7988   -15.2317 H       1      m1     0.0151
    263 C           17.5494     1.8841   -16.6766 C       1      m1     0.0039
    264 C           17.5772    -0.4884   -13.1283 C       1      m1     0.0336
    265 H          -16.3188     5.4013   -14.7974 H       1      m1     0.0134
    266 C          -15.5515     5.1699   -12.8423 C       1      m1    -0.0058
    267 C          -15.2870     5.1503   -14.3273 C       1      m1    -0.0166
    268 C          -14.4107     6.2049   -14.6650 C       1      m1     0.0066
    269 H          -13.2030     4.2390   -13.8619 H       1      m1     0.0266
    270 C          -13.1255     5.3323   -14.2590 C       1      m1    -0.0377
    271 H          -12.5935     4.3309   -11.7664 H       1      m1     0.0076
    272 H          -12.4772     6.0720   -13.5758 H       1      m1     0.0311
    273 C          -11.6701     5.5047   -16.5576 C       1      m1    -0.0022
    274 C          -11.9929     5.3581   -15.2210 C       1      m1     0.0103
    275 C          -11.3970     2.6809   -12.8118 C       1      m1     0.0138
    276 C          -11.3071     3.6306   -13.8515 C       1      m1    -0.0102
    277 C          -10.8966     4.3916   -15.0120 C       1      m1    -0.0240
    278 H          -10.0552     4.2002   -15.6873 H       1      m1     0.0226
    279 H           -9.6256     4.4176   -13.3004 H       1      m1     0.0192
    280 C           -9.0310     4.5513   -12.0821 C       1      m1    -0.0589
    281 C           -7.8614     6.3633   -13.0976 C       1      m1    -0.0877
    282 H           -6.9143     3.6487   -13.6339 H       1      m1    -0.0078
    283 C           -6.9004     3.9314   -12.5110 C       1      m1     0.2802
    284 H           -4.7386     2.5809   -15.0643 H       1      m1     0.0370
    285 C           -4.1857     3.9035   -16.4700 C       1      m1    -0.0116
    286 H           -4.5619     5.0608   -16.6135 H       1      m1     0.0373
    287 C           -3.7974     3.2482   -15.1884 C       1      m1    -0.0038
    288 H           -3.3663     4.1067   -14.3633 H       1      m1     0.0859
    289 O           -1.1443     4.3244   -14.5735 O       1      m1    -0.4712
    290 C            0.0559     4.7176   -14.1021 C       1      m1     0.2540
    291 H            0.6851     3.9759   -13.3287 H       1      m1    -0.0054
    292 C            0.4942     5.1045   -15.6078 C       1      m1     0.0269
    293 C            1.1006     5.5466   -12.8811 C       1      m1    -0.0514
    294 C            1.6663     4.2836   -15.7833 C       1      m1    -0.0181
    295 H            1.9211     4.5379   -13.4389 H       1      m1     0.0045
    296 H            2.7230     2.9807   -13.8264 H       1      m1     0.0253
    297 C            2.7729     3.6822   -15.6064 C       1      m1     0.0049
    298 C            3.6712     3.4129   -14.2635 C       1      m1    -0.0376
    299 H            3.6989     4.4650   -14.1680 H       1      m1     0.0213
    300 H            3.8855     4.6416    16.8259 H       1      m1     0.0249
    301 H            4.4108     3.0547    16.7014 H       1      m1     0.0229
    302 C            4.8646     2.9130   -14.2518 C       1      m1     0.0048
    303 C            5.6046     3.9074   -13.9755 C       1      m1    -0.0116
    304 C            5.9724     5.1520   -13.7446 C       1      m1    -0.0170
    305 C            6.4953     6.0171   -16.6808 C       1      m1     0.0002
    306 C            6.7727     6.2585   -13.0218 C       1      m1    -0.0025
    307 H            7.0321     4.8462   -14.3537 H       1      m1     0.0200
    308 C            7.3891     5.4449   -15.9384 C       1      m1    -0.0327
    309 H            7.5637     4.2754   -15.8232 H       1      m1     0.0323
    310 H            7.8766     4.3801   -13.0479 H       1      m1     0.0215
    311 C            8.3918     6.3593   -12.8269 C       1      m1    -0.0158
    312 C            8.5695     6.2672   -16.0710 C       1      m1     0.0746
    313 C            8.7144     4.8722   -12.2829 C       1      m1    -0.0117
    314 C            8.8286     3.0364   -13.4391 C       1      m1    -0.0152
    315 C            9.6328     2.7363   -14.5064 C       1      m1     0.0078
    316 C           10.1681     4.3547   -12.3987 C       1      m1     0.0199
    317 O           10.7003     5.1772   -15.8190 O       1      m1    -0.4377
    318 C           10.8516     4.3472   -13.5762 C       1      m1    -0.0500
    319 C           11.4264     2.3489   -16.4524 C       1      m1     0.0111
    320 C           11.2908     4.2672   -14.9310 C       1      m1     0.2592
    321 C           12.2985     3.2983   -15.6221 C       1      m1    -0.0342
    322 H           12.7846     2.8016   -14.7552 H       1      m1     0.0143
    323 C           13.4196     3.0365   -16.7732 C       1      m1     0.0134
    324 C           13.5867     5.7057   -14.9023 C       1      m1     0.0052
    325 H           14.5922     3.9582   -12.4582 H       1      m1     0.0153
    326 C           14.1230     3.7578   -13.4316 C       1      m1    -0.0322
    327 C           14.0467     4.5578   -14.8308 C       1      m1     0.0011
    328 C           14.4106     3.6807   -16.1809 C       1      m1     0.0108
    329 C           14.6094     2.3224   -13.7803 C       1      m1    -0.0117
    330 C           15.8720     3.7872   -16.3255 C       1      m1    -0.0041
    331 C           16.3329     2.4658   -16.0630 C       1      m1    -0.0056
    332 H           17.2464     6.2243   -15.8060 H       1      m1     0.0084
    333 C           17.3643     6.3918    16.6939 C       1      m1    -0.0064
    334 H          -17.3447     7.9114   -14.9180 H       1      m1     0.0111
    335 C          -16.6445    10.2071   -16.0087 C       1      m1     0.0070
    336 C          -16.5972     8.0338   -12.6329 C       1      m1    -0.0137
    337 C          -16.1387     8.1001   -15.2388 C       1      m1    -0.0239
    338 C          -15.7090     8.1586   -13.8422 C       1      m1    -0.0080
    339 C          -15.6268     7.5824   -16.3406 C       1      m1     0.0023
    340 C          -15.3970    10.4512   -15.9924 C       1      m1    -0.0241
    341 C          -14.3772     7.2431   -16.2268 C       1      m1    -0.0149
    342 C          -14.4657     7.3336   -13.7267 C       1      m1     0.0067
    343 C          -14.5761    10.3980   -14.6589 C       1      m1     0.1309
    344 C          -13.7447     7.0503   -12.4300 C       1      m1    -0.0062
    345 H          -13.6552     9.8735   -14.8100 H       1      m1     0.0565
    346 H          -14.8180     9.8749   -13.5552 H       1      m1     0.0385
    347 H          -13.8250     8.3225   -16.2594 H       1      m1     0.0252
    348 O          -10.9488     9.5979   -13.4876 O       1      m1    -0.4739
    349 C          -10.7743    10.0521   -12.0569 C       1      m1     0.2146
    350 C           -9.5520     9.9353   -14.0366 C       1      m1     0.2525
    351 C           -8.8507    10.6796   -15.1315 C       1      m1    -0.0341
    352 C           -8.8732    10.6354   -13.0282 C       1      m1     0.0384
    353 H           -8.3512     6.2849   -14.1012 H       1      m1     0.0742
    354 C           -8.3940     9.9947   -16.3469 C       1      m1     0.0361
    355 O           -7.1500     8.9158   -12.9395 O       1      m1    -0.4725
    356 C           -7.1897     7.4641   -12.4890 C       1      m1     0.2256
    357 C           -6.9334    10.1262   -16.7965 C       1      m1    -0.0155
    358 C           -5.9565    10.3254   -15.7784 C       1      m1     0.0533
    359 O           -6.0779     7.1199   -16.0030 O       1      m1    -0.6035
    360 H           -5.1294     6.9754   -15.7300 H       1      m1     0.2716
    361 H           -4.0878     9.0721   -13.8116 H       1      m1     0.0682
    362 C           -3.0471     9.1302   -13.8299 C       1      m1    -0.1165
    363 O           -2.8811     9.0967   -16.3222 O       1      m1    -0.5208
    364 C           -2.4972     9.0023   -15.1292 C       1      m1     0.3575
    365 C           -2.1581     9.1365   -12.7471 C       1      m1     0.0006
    366 C           -0.9068     9.0210   -14.8042 C       1      m1    -0.0452
    367 C           -0.8195     8.9920   -13.3540 C       1      m1    -0.0158
    368 H           -0.7060    10.0164   -16.3945 H       1      m1     0.0525
    369 C           -0.1646     7.7475   -13.0472 C       1      m1     0.0010
    370 C            0.0090     9.4189   -15.7693 C       1      m1     0.0016
    371 H            0.8946     7.4553   -15.7409 H       1      m1     0.0301
    372 C            1.1936     8.4940   -15.8761 C       1      m1    -0.0025
    373 C            0.9478     6.9506   -13.3290 C       1      m1    -0.0085
    374 C            2.6027     8.5508   -15.6124 C       1      m1    -0.0053
    375 C            3.3695    10.9241   -16.3301 C       1      m1    -0.0157
    376 C            3.7967     8.6257   -15.0836 C       1      m1    -0.0060
    377 H            3.7263     7.1970   -13.7165 H       1      m1     0.0149
    378 H            5.3851     9.7265   -14.0240 H       1      m1     0.0200
    379 C            4.2468     9.1165   -11.9550 C       1      m1    -0.0118
    380 C            4.0929     9.7628   -16.2111 C       1      m1     0.0022
    381 C            4.7288     7.8231   -14.1432 C       1      m1    -0.0213
    382 C            4.7807    10.2690   -12.9850 C       1      m1    -0.0028
    383 C            6.0309     7.5757   -13.6526 C       1      m1    -0.0024
    384 H            6.9524     9.5176   -14.3455 H       1      m1     0.0277
    385 C            7.0508     8.4776   -13.7959 C       1      m1    -0.0030
    386 C            7.9788     8.6305   -12.6105 C       1      m1     0.0429
    387 C            8.3991    10.1383   -12.0883 C       1      m1     0.0136
    388 H            9.1634     6.5323   -13.6067 H       1      m1     0.0707
    389 C            9.1211     7.3570   -16.2759 C       1      m1     0.0362
    390 H            9.1693    10.8566   -14.3345 H       1      m1     0.0583
    391 C            9.1616    10.7398   -16.5267 C       1      m1     0.0204
    392 C            9.9233     8.3492   -16.6581 C       1      m1     0.0250
    393 O           10.1056     9.0149   -14.0763 O       1      m1    -0.4705
    394 C           11.5130     9.1871   -14.0511 C       1      m1     0.2583
    395 C           12.4629     8.1868   -14.4829 C       1      m1    -0.0539
    396 C           12.4493    10.5814   -14.2600 C       1      m1    -0.0442
    397 C           12.8481     7.0180   -15.0341 C       1      m1     0.0375
    398 H           12.8941     7.1420   -16.2526 H       1      m1     0.0399
    399 C           14.7868    10.0665   -15.2590 C       1      m1    -0.0135
    400 H           14.5556     8.9196   -15.2740 H       1      m1     0.0189
    401 C           16.0780     9.8122   -15.3596 C       1      m1    -0.0113
    402 C           17.3464     9.9107   -15.7282 C       1      m1    -0.0085
    403 C          -17.1060   -15.3560   -15.4834 C       1      m1     0.0108
    404 H          -17.2332    14.1843   -15.1118 H       1      m1     0.0406
    405 C          -15.1538    11.8516   -16.4127 C       1      m1    -0.0236
    406 C          -14.0992    12.6003   -15.5763 C       1      m1     0.1674
    407 C          -13.6252    13.8136   -15.9618 C       1      m1    -0.0200
    408 O          -13.8065    11.7371   -14.1223 O       1      m1    -0.4200
    409 H          -12.7199    11.5117   -11.8983 H       1      m1     0.0634
    410 C          -11.7339    12.2735   -12.3863 C       1      m1     0.0011
    411 H          -11.6918    13.2710   -11.8281 H       1      m1     0.0081
    412 H          -11.3838    14.5744   -13.8122 H       1      m1     0.0217
    413 C          -10.8438    12.3371   -13.5767 C       1      m1     0.0484
    414 H          -10.7314    12.5028   -15.6440 H       1      m1     0.0381
    415 C          -10.4345    14.5736   -14.4260 C       1      m1     0.0055
    416 C          -10.3085    12.8898   -14.6572 C       1      m1    -0.0264
    417 C           -8.8217    12.1619   -14.8321 C       1      m1    -0.0036
    418 C           -8.2633    11.9274   -13.4524 C       1      m1     0.0047
    419 H           -8.0106    13.9681   -12.1122 H       1      m1     0.0132
    420 C           -7.9985    13.3417   -13.1349 C       1      m1    -0.0213
    421 H           -7.1343    14.9356   -14.0935 H       1      m1     0.0311
    422 C           -7.0011    13.7432   -14.1688 C       1      m1    -0.0397
    423 H           -7.1862    12.8860   -14.7450 H       1      m1     0.0288
    424 C           -5.2996    10.7197   -14.8415 C       1      m1     0.0344
    425 H           -5.1552    12.7187   -15.7424 H       1      m1     0.0181
    426 C           -4.9071    12.1927   -14.8224 C       1      m1    -0.0242
    427 C           -4.1833    13.2007   -14.1722 C       1      m1     0.0019
    428 C           -4.2592    14.9501   -13.8027 C       1      m1    -0.0052
    429 H           -4.1174    11.7619   -12.3287 H       1      m1     0.0241
    430 C           -3.9022    12.6606   -12.8892 C       1      m1    -0.0213
    431 C           -3.1467    15.0300   -12.8203 C       1      m1     0.0019
    432 C           -3.0943    13.8116   -12.0224 C       1      m1    -0.0101
    433 H           -2.7855    14.0939   -16.5218 H       1      m1     0.0273
    434 H            0.4594    13.7310   -14.2658 H       1      m1     0.0221
    435 C            1.7073    13.3333   -14.1731 C       1      m1     0.1248
    436 C            2.5357    12.8162   -13.1876 C       1      m1     0.1102
    437 H            2.3581    11.2152   -15.9711 H       1      m1     0.0425
    438 O            3.3221    13.3674   -14.5908 O       1      m1    -0.3861
    439 H            3.7193    11.6150    16.6946 H       1      m1     0.0435
    440 H            3.9220    12.7894   -11.5905 H       1      m1     0.0325
    441 C            4.8637    11.2816   -12.0976 C       1      m1    -0.0246
    442 C            5.5538    12.1857   -12.7993 C       1      m1     0.0431
    443 C            6.8890    12.1419   -13.4127 C       1      m1    -0.0008
    444 H            7.6537    14.3972   -13.8485 H       1      m1     0.0170
    445 C            7.4705    13.3963   -14.3803 C       1      m1     0.0015
    446 C            7.9836    11.5994   -12.3893 C       1      m1    -0.0074
    447 C            8.4367    12.9058   -15.1654 C       1      m1    -0.0046
    448 C            8.8212    11.8363   -16.0719 C       1      m1    -0.0176
    449 C            9.2637    12.1172   -12.6920 C       1      m1    -0.0172
    450 C           10.0122    11.0073   -13.5080 C       1      m1     0.0592
    451 C           11.2423    11.4836   -14.1988 C       1      m1    -0.0080
    452 H           13.2261    13.4029   -14.2775 H       1      m1     0.0257
    453 C           12.8673    14.1077   -14.7918 C       1      m1    -0.0216
    454 C           12.8796    15.0903   -15.7486 C       1      m1     0.0045
    455 H           13.7526    11.8992   -15.1521 H       1      m1     0.0241
    456 C           13.7711    10.9968   -14.8652 C       1      m1    -0.0138
    457 H          -13.8374   -13.8908    -7.8483 H       1      m1     0.0159
    458 C          -13.0610   -13.3198    -8.3618 C       1      m1    -0.0260
    459 C          -12.7824   -12.3354   -10.6301 C       1      m1    -0.0019
    460 C          -12.5641   -13.4630    -9.6936 C       1      m1     0.0164
    461 C          -12.0040   -12.7111    -7.5221 C       1      m1     0.0287
    462 C          -11.7215   -12.3555   -11.7107 C       1      m1    -0.0089
    463 C          -11.3125   -14.1203   -10.2959 C       1      m1     0.0025
    464 O          -10.6010   -11.3359    -7.4005 O       1      m1    -0.4122
    465 C          -10.5859   -13.2221   -10.9846 C       1      m1     0.0087
    466 C           -9.0353   -13.0900   -11.1295 C       1      m1     0.0272
    467 C           -8.3507   -14.3530   -11.2304 C       1      m1     0.0092
    468 H           -8.8666   -12.5092   -11.9052 H       1      m1     0.0438
    469 H           -7.8918   -15.0336   -11.8397 H       1      m1     0.0147
    470 O           -6.9292   -12.9206    -8.2540 O       1      m1    -0.4743
    471 H           -6.3698   -10.5956   -10.5670 H       1      m1     0.0659
    472 C           -6.5623   -11.6981    -8.1828 C       1      m1     0.3329
    473 H           -5.7460   -13.9319   -11.0298 H       1      m1     0.0601
    474 C           -4.8675   -14.2151   -10.3996 C       1      m1    -0.0404
    475 H           -5.0974   -14.2578    -9.3115 H       1      m1     0.0684
    476 C           -3.5830   -13.5106    -9.9824 C       1      m1     0.0080
    477 C           -2.6728   -13.8114    -8.8425 C       1      m1    -0.0252
    478 C           -2.8429   -14.7072    -7.7359 C       1      m1     0.0087
    479 C           -2.5509   -11.2866   -11.4012 C       1      m1    -0.0316
    480 C           -2.2673   -13.7840   -10.8766 C       1      m1    -0.0287
    481 H           -1.8136   -13.0501    -8.8432 H       1      m1     0.0128
    482 C           -1.7025   -12.4189   -10.9385 C       1      m1    -0.0033
    483 H           -1.8513   -14.9012   -10.8140 H       1      m1     0.0134
    484 H           -1.0658   -11.0051    -9.0446 H       1      m1     0.0228
    485 H           -0.8455   -12.3114   -10.1067 H       1      m1     0.0111
    486 H            0.1548   -14.2576    -8.8951 H       1      m1     0.0136
    487 C            0.7497   -11.6817   -12.0040 C       1      m1    -0.0012
    488 C            1.1677   -14.1142    -8.7071 C       1      m1    -0.0381
    489 C            2.2413   -14.7689    -8.2698 C       1      m1     0.0127
    490 C            3.2580   -14.2936   -11.2116 C       1      m1     0.0006
    491 C            3.8181   -14.5083    -8.5282 C       1      m1    -0.0188
    492 H            4.0358   -13.8930    -9.4345 H       1      m1     0.0169
    493 C            4.4434   -11.0134   -10.2987 C       1      m1    -0.0211
    494 C            4.6178   -12.0514   -11.4296 C       1      m1    -0.0232
    495 C            4.3145   -13.3619   -11.6930 C       1      m1    -0.0181
    496 C            4.8797   -15.2014    -7.8519 C       1      m1    -0.0161
    497 C            6.0065   -14.3236    -8.0758 C       1      m1    -0.0093
    498 H            6.1005   -12.4830   -10.2702 H       1      m1     0.0154
    499 H            5.3438   -13.3498    -8.6487 H       1      m1     0.0174
    500 C            7.3643   -14.8490    -8.0162 C       1      m1    -0.0045
    501 C            7.3460   -12.6242   -10.3506 C       1      m1    -0.0261
    502 C            8.0810   -11.3807    -9.9937 C       1      m1    -0.0024
    503 H            8.0229   -14.3294   -11.5533 H       1      m1     0.0143
    504 H            8.5945   -13.1385    -8.5130 H       1      m1     0.0219
    505 C            8.2884   -13.6359   -10.7145 C       1      m1    -0.0183
    506 C            8.9600   -13.8609    -9.3628 C       1      m1    -0.0195
    507 C            9.3527   -11.0065   -10.1381 C       1      m1    -0.0394
    508 C            9.8949   -14.9985    -7.7108 C       1      m1    -0.0166
    509 H            9.9385   -11.9453   -10.2796 H       1      m1     0.0327
    510 C           10.2489   -14.5159    -8.9063 C       1      m1    -0.0038
    511 C           11.5888   -13.7621    -8.9788 C       1      m1    -0.0028
    512 C           12.1772   -12.4728   -11.1934 C       1      m1     0.0034
    513 C           12.4516   -13.0563    -9.7939 C       1      m1    -0.0155
    514 H           13.2634   -12.4345    -9.3509 H       1      m1     0.0306
    515 C           13.6638   -14.6230   -11.3836 C       1      m1     0.0057
    516 C           14.4204   -10.8928    -8.8766 C       1      m1     0.0135
    517 C           14.8310   -11.0932   -10.2001 C       1      m1    -0.0097
    518 C           15.0607   -14.8060   -11.3345 C       1      m1    -0.0436
    519 C           15.4896   -14.6788    -9.7977 C       1      m1     0.0095
    520 C           15.5879   -12.2607   -10.6094 C       1      m1     0.0083
    521 C           15.7954   -13.4198    -9.3698 C       1      m1    -0.0052
    522 C           16.4190   -14.3911    -7.3670 C       1      m1    -0.0002
    523 C           16.5969   -13.1425    -8.2222 C       1      m1    -0.0219
    524 H           17.2420   -12.3187    -7.9880 H       1      m1     0.0206
    525 C          -17.3946    -6.7461    -7.9900 C       1      m1    -0.0136
    526 C          -17.1282    -9.2539    -8.9804 C       1      m1    -0.0058
    527 C          -17.0185    -9.7117   -11.1986 C       1      m1    -0.0151
    528 C          -16.5299    -9.6524    -7.7519 C       1      m1    -0.0108
    529 H          -16.6863    -7.7719    -7.8523 H       1      m1     0.0212
    530 H          -16.9942   -10.9735   -11.5086 H       1      m1     0.0250
    531 H          -14.6576    -8.9882    -8.4235 H       1      m1     0.0207
    532 C          -14.0806    -8.7794    -7.5048 C       1      m1    -0.0368
    533 H          -13.6349    -9.0518   -10.3855 H       1      m1     0.0190
    534 H          -13.6009    -7.7980    -7.3586 H       1      m1     0.0187
    535 C          -12.9149   -10.8615   -10.0450 C       1      m1     0.0234
    536 C          -13.1097    -9.9039   -11.0685 C       1      m1    -0.0192
    537 C          -10.5057    -6.7758    -9.8273 C       1      m1    -0.0113
    538 H          -10.4096    -6.8731   -10.9374 H       1      m1     0.0162
    539 H           -8.4945    -8.3174   -10.3941 H       1      m1     0.0304
    540 C           -8.1365    -7.5754   -11.0657 C       1      m1    -0.0308
    541 C           -5.9979   -10.5898    -9.0381 C       1      m1    -0.0786
    542 H           -5.1227    -8.7969   -10.0640 H       1      m1     0.0134
    543 C           -5.4798    -9.3471    -9.1320 C       1      m1     0.0032
    544 C           -5.1424    -8.2268    -8.2184 C       1      m1    -0.0064
    545 C           -5.1848    -6.8209    -8.5019 C       1      m1    -0.0076
    546 H           -4.0115    -7.1486   -10.3619 H       1      m1     0.0452
    547 C           -3.6612    -9.1148   -11.5443 C       1      m1    -0.0451
    548 C           -3.2441    -7.7945   -12.0162 C       1      m1     0.1695
    549 C           -2.7499   -10.1096   -11.2959 C       1      m1     0.0376
    550 O           -1.9041    -7.0572   -11.1723 O       1      m1    -0.4778
    551 C           -0.3752   -10.7114    -8.3195 C       1      m1    -0.0188
    552 H            0.3968    -6.8447   -11.0643 H       1      m1     0.0570
    553 C            0.6669    -8.7845    -8.2074 C       1      m1    -0.0089
    554 C            0.7432   -10.2353    -8.9685 C       1      m1     0.0041
    555 C            0.7090   -10.4481   -10.3306 C       1      m1    -0.0024
    556 C            1.1373   -10.2639   -11.5151 C       1      m1     0.0007
    557 C            1.4404    -6.5475   -11.2568 C       1      m1    -0.0268
    558 H            1.3800    -8.1524    -8.8365 H       1      m1     0.0198
    559 C            2.3506    -7.6982   -11.5783 C       1      m1    -0.0140
    560 H            3.4989    -7.4943   -11.5023 H       1      m1     0.0121
    561 H            3.2755   -10.5979   -10.0629 H       1      m1     0.0174
    562 H            3.6655    -7.1692    -8.4223 H       1      m1     0.0136
    563 C            4.6880    -7.3469    -7.9025 C       1      m1    -0.0319
    564 C            5.4478    -8.7045    -7.9904 C       1      m1    -0.0056
    565 C            5.6334   -10.3059   -10.7119 C       1      m1    -0.0058
    566 C            6.5567   -10.4574    -9.5439 C       1      m1    -0.0116
    567 C            6.6487    -9.5234    -8.1291 C       1      m1    -0.0250
    568 H            7.3694   -10.4467    -8.0498 H       1      m1     0.0259
    569 H            7.7050    -8.8833    -8.1323 H       1      m1     0.0296
    570 C            9.4916    -8.5644   -11.7975 C       1      m1     0.0350
    571 H            9.7803    -9.9780    -9.9378 H       1      m1     0.0788
    572 C           10.1958    -7.3028   -11.3248 C       1      m1    -0.0544
    573 C           11.4645    -7.8364   -11.2198 C       1      m1     0.3191
    574 O           11.7282    -8.6380   -10.2531 O       1      m1    -0.4553
    575 H           12.0674    -7.9241   -12.0189 H       1      m1     0.0065
    576 H           14.0783    -9.5769    -7.6021 H       1      m1     0.1017
    577 H           15.4850   -10.0662   -10.2883 H       1      m1     0.0235
    578 C           14.8246    -9.4126    -8.4971 C       1      m1    -0.0026
    579 C           15.1492    -8.1420    -8.8403 C       1      m1     0.0428
    580 C           15.5789    -6.6853    -9.0875 C       1      m1     0.0026
    581 H           16.9555    -8.1329   -10.3655 H       1      m1     0.0189
    582 C           17.5062    -9.0142   -10.2035 C       1      m1    -0.0258
    583 C          -16.6735    -5.6269    -7.2501 C       1      m1     0.0007
    584 H          -16.3845    -6.4572   -10.7843 H       1      m1     0.0140
    585 H          -16.0627    -3.2894   -11.9961 H       1      m1     0.0134
    586 C          -15.7313    -6.0635   -11.6585 C       1      m1    -0.0097
    587 C          -15.4011    -4.9598    -9.5221 C       1      m1    -0.0069
    588 C          -15.2773    -5.6095    -7.2305 C       1      m1    -0.0164
    589 C          -14.7191    -5.2674   -10.7871 C       1      m1    -0.0233
    590 C          -14.6149    -4.7003    -8.2821 C       1      m1    -0.0019
    591 H          -14.2000    -3.0079    -7.6509 H       1      m1     0.0337
    592 H          -13.8557    -5.0310   -11.1013 H       1      m1     0.0254
    593 C          -13.5173    -3.9646    -7.6154 C       1      m1    -0.0244
    594 C          -12.1214    -2.5835    -9.8893 C       1      m1     0.0023
    595 C          -12.1598    -3.2915   -11.0726 C       1      m1    -0.0009
    596 C          -11.2180    -4.2083   -11.4225 C       1      m1    -0.0187
    597 C          -11.0377    -3.0805    -8.9427 C       1      m1    -0.0167
    598 H          -10.6274    -2.6515    -8.0394 H       1      m1     0.0286
    599 C          -10.4872    -5.7132    -9.6343 C       1      m1    -0.0017
    600 C          -10.4161    -4.1237    -9.8098 C       1      m1     0.0102
    601 H           -9.3275    -4.4140   -10.4021 H       1      m1     0.0377
    602 H           -9.0599    -4.7999    -7.5350 H       1      m1     0.2752
    603 H           -9.0115    -2.8728    -7.2214 H       1      m1     0.1046
    604 C           -8.7439    -6.5616    -8.0571 C       1      m1    -0.0216
    605 O           -8.3617    -4.3587    -7.9908 O       1      m1    -0.6123
    606 C           -7.5874    -2.2801   -11.5927 C       1      m1    -0.0307
    607 C           -7.5098    -5.7513    -8.1504 C       1      m1     0.2066
    608 H           -8.0621    -2.7277   -10.5387 H       1      m1     0.0426
    609 C           -6.1672    -5.9189    -7.6033 C       1      m1    -0.0432
    610 C           -4.9608    -4.6808    -7.2766 C       1      m1     0.0297
    611 C           -4.8041    -4.9703    -9.3992 C       1      m1     0.0077
    612 C           -4.8230    -3.8792   -12.0665 C       1      m1    -0.0052
    613 C           -4.4413    -4.2518   -10.8144 C       1      m1    -0.0021
    614 C           -4.4126    -6.3628    -9.5528 C       1      m1    -0.0179
    615 C           -4.3103    -4.2637    -8.4807 C       1      m1    -0.0007
    616 C           -3.2301    -3.3401    -8.5720 C       1      m1    -0.0217
    617 H           -3.0716    -2.7930    -9.4271 H       1      m1     0.0207
    618 C           -2.6176    -2.6177    -7.2459 C       1      m1    -0.0048
    619 H           -1.2371    -4.1221    -7.7856 H       1      m1     0.0401
    620 C           -1.4192    -5.6435   -10.9133 C       1      m1     0.1902
    621 C           -1.0186    -3.1264    -7.5615 C       1      m1    -0.1272
    622 H           -0.7901    -5.8548   -10.0792 H       1      m1     0.0166
    623 C           -0.4296    -3.1309    -9.1615 C       1      m1     0.0245
    624 C            0.8149    -3.0150    -9.6165 C       1      m1     0.0321
    625 C            1.8591    -2.5287   -10.3439 C       1      m1     0.0497
    626 C            2.0339    -5.3563   -10.6606 C       1      m1     0.0253
    627 C            2.9624    -4.5283    -9.9425 C       1      m1    -0.0160
    628 C            3.1445    -3.1511    -9.8220 C       1      m1     0.0005
    629 C            3.9542    -2.7635    -8.6466 C       1      m1     0.0046
    630 H            3.7558    -5.1158    -9.6229 H       1      m1     0.0124
    631 H            4.6897    -3.5282    -8.8341 H       1      m1     0.0126
    632 C            5.4561    -6.0213    -7.6216 C       1      m1    -0.0266
    633 H            5.0636    -5.4761    -8.3549 H       1      m1     0.0134
    634 C            7.9267    -4.0771   -11.7261 C       1      m1    -0.0072
    635 C            8.3440    -5.6261   -11.2560 C       1      m1    -0.0120
    636 C            8.8020    -3.2402   -11.1409 C       1      m1    -0.0044
    637 C            9.2159    -2.6566   -10.1107 C       1      m1     0.0061
    638 C            9.3621    -6.4274   -11.2350 C       1      m1     0.0366
    639 C            9.6039    -2.8120    -8.9660 C       1      m1    -0.0389
    640 H            9.9898    -3.5493    -8.2530 H       1      m1     0.0308
    641 H           10.2780    -1.0939    -6.7033 H       1      m1     0.0168
    642 H           12.8479    -3.2444   -11.6934 H       1      m1     0.0189
    643 H           13.8520    -3.1959    -7.5955 H       1      m1     0.0185
    644 H           14.5968    -4.8725   -10.4685 H       1      m1     0.0156
    645 C           15.2011    -5.9815   -10.2843 C       1      m1    -0.0029
    646 C           15.9631    -5.5918   -11.2284 C       1      m1    -0.0190
    647 C           16.2704    -3.2297    -7.3579 C       1      m1     0.0041
    648 H           16.9974    -3.7663    -9.3992 H       1      m1     0.0172
    649 C           16.3533    -3.1018    -8.7749 C       1      m1    -0.0128
    650 C           16.6796    -6.6227    -8.5386 C       1      m1    -0.0021
    651 H           16.8648    -2.9163   -11.0942 H       1      m1     0.0237
    652 C          -16.9591    -1.3197    -9.7766 C       1      m1     0.1380
    653 O          -16.9549    -0.4626    -8.4629 O       1      m1    -0.4513
    654 C          -16.2440    -0.3496    -9.8139 C       1      m1     0.1189
    655 H          -15.6595     0.7016   -11.2964 H       1      m1     0.0234
    656 C          -15.8713     1.8629   -11.5800 C       1      m1    -0.0211
    657 H          -14.1138     0.6506   -11.5488 H       1      m1     0.2748
    658 C          -13.4364    -1.1351   -11.5559 C       1      m1     0.2462
    659 C          -13.3667    -0.3789    -7.5835 C       1      m1    -0.0091
    660 C          -13.3213    -0.4311    -9.0978 C       1      m1     0.0142
    661 C          -13.0928    -1.3264   -10.0756 C       1      m1    -0.0585
    662 C          -12.3715     0.6545    -9.6730 C       1      m1    -0.0091
    663 C          -11.1829     0.2576   -10.3578 C       1      m1     0.0073
    664 C          -10.0039     1.0796   -10.9339 C       1      m1    -0.0171
    665 H           -9.9837    -0.6353    -8.6330 H       1      m1     0.0227
    666 C           -9.6945    -0.9794    -7.6118 C       1      m1    -0.0574
    667 H           -8.7592     0.8717   -10.5824 H       1      m1     0.0310
    668 H           -6.6598     1.2415    -7.2217 H       1      m1     0.0292
    669 H           -5.8193     0.6943   -12.1987 H       1      m1     0.0537
    670 C           -4.1120     0.4148    -8.4842 C       1      m1    -0.0084
    671 H           -4.4567     0.8710    -9.6232 H       1      m1     0.0373
    672 C           -2.9636    -0.0781    -7.6995 C       1      m1     0.0069
    673 C           -2.5183    -0.5691   -11.2609 C       1      m1    -0.0223
    674 H           -2.9520    -1.0812   -10.3311 H       1      m1     0.0170
    675 C           -2.0368     1.6164    -9.8167 C       1      m1     0.0025
    676 C           -1.4048     0.6269   -10.6215 C       1      m1    -0.0231
    677 H           -1.2241     0.5705   -11.7131 H       1      m1     0.0253
    678 C           -0.6581     1.3566    -8.7032 C       1      m1    -0.0066
    679 C           -0.5166     0.1022    -9.4167 C       1      m1     0.0036
    680 C            0.7191    -0.5530    -9.6045 C       1      m1     0.0065
    681 C            1.1598     0.7746   -11.7128 C       1      m1     0.0078
    682 C            1.3043     1.8916   -10.9363 C       1      m1    -0.0106
    683 H            1.3720    -0.0419    -7.0411 H       1      m1     0.0522
    684 C            1.6547    -1.0236   -10.3413 C       1      m1     0.0101
    685 C            2.3171     0.1923   -10.9715 C       1      m1     0.0012
    686 C            2.7921     2.1546    -8.7982 C       1      m1    -0.0022
    687 C            3.5430     0.2535   -11.8562 C       1      m1    -0.0002
    688 C            3.5950     1.1839    -8.1446 C       1      m1    -0.0236
    689 C            4.5034    -0.8957   -11.8142 C       1      m1     0.0040
    690 C            4.2790    -0.7946    -7.2196 C       1      m1     0.0159
    691 H            4.5922     1.0492    -8.5609 H       1      m1     0.0158
    692 C            4.5733    -1.4359    -8.5777 C       1      m1    -0.0220
    693 H            4.6040    -0.9277    -9.6727 H       1      m1     0.0194
    694 C            7.9826     2.1394    -7.1756 C       1      m1     0.0289
    695 H            8.9502     1.4146    -9.8749 H       1      m1     0.0224
    696 C            8.4584    -0.2278    -8.1685 C       1      m1    -0.0053
    697 C            9.0378     0.3533    -9.6492 C       1      m1    -0.0223
    698 H            9.6707    -1.7171    -8.6744 H       1      m1     0.0239
    699 C           10.2205     0.0872   -10.1115 C       1      m1    -0.0020
    700 C           11.3167    -0.4610   -10.6452 C       1      m1    -0.0004
    701 C           11.4903     0.6262   -11.7900 C       1      m1    -0.0026
    702 C           11.9670    -1.8704   -10.6890 C       1      m1    -0.0243
    703 C           12.3179     1.7026   -11.3726 C       1      m1    -0.0065
    704 H           12.9504    -1.4307   -10.8719 H       1      m1     0.0177
    705 C           13.5486     0.8112    -9.3115 C       1      m1     0.0011
    706 C           13.5159     1.1553   -10.8033 C       1      m1    -0.0011
    707 H           14.8737    -1.7253    -8.4805 H       1      m1     0.0140
    708 C           14.9195     0.8021   -11.3869 C       1      m1    -0.0056
    709 C           14.9560     0.3692    -8.8942 C       1      m1    -0.0102
    710 H           15.3106    -0.0166    -8.0352 H       1      m1     0.0272
    711 C           15.0794    -0.2645   -10.4007 C       1      m1    -0.0037
    712 C           15.6409    -1.9281    -9.1092 C       1      m1    -0.0087
    713 C           15.8841     1.7960   -10.8427 C       1      m1     0.0015
    714 C           16.0247    -1.2121   -10.4060 C       1      m1     0.0175
    715 C           15.8984     1.4468    -9.2881 C       1      m1    -0.0389
    716 H           16.9241     1.0643    -9.1224 H       1      m1     0.0690
    717 C           17.1854    -2.0579   -10.6518 C       1      m1    -0.0484
    718 H          -16.1815     2.1528    -9.7514 H       1      m1     0.0310
    719 C          -16.5971     4.0770   -11.2606 C       1      m1     0.0139
    720 C          -15.8091     3.0288   -10.5060 C       1      m1    -0.0397
    721 H          -15.2638     3.7769    -9.8387 H       1      m1     0.0333
    722 C          -15.6527     5.2185   -11.5096 C       1      m1    -0.0161
    723 H          -15.1783     5.8539   -10.7673 H       1      m1     0.0694
    724 C          -13.1566     2.6960    -8.0959 C       1      m1    -0.0123
    725 C          -12.7314     2.6765   -10.7426 C       1      m1    -0.0078
    726 C          -12.7178     2.1736    -9.3984 C       1      m1    -0.0103
    727 C          -12.6822     3.1507   -12.0516 C       1      m1    -0.0061
    728 H          -11.4041     4.0223   -10.2209 H       1      m1     0.0197
    729 C          -11.6570     5.8800    -7.3541 C       1      m1    -0.0335
    730 C          -10.6454     4.6810   -10.0929 C       1      m1    -0.0280
    731 C          -10.5644     1.9371   -11.7800 C       1      m1     0.0093
    732 C          -10.4881     6.1592    -8.0033 C       1      m1    -0.0009
    733 C          -10.1789     4.8985    -8.6999 C       1      m1    -0.0090
    734 C           -9.6903     4.6009   -11.1358 C       1      m1     0.0572
    735 H           -9.6679     6.7202    -8.0376 H       1      m1     0.0214
    736 H           -9.1122     4.5319    -8.5311 H       1      m1     0.0420
    737 C           -7.7182     5.4236   -11.9721 C       1      m1     0.1868
    738 C           -7.2307     4.6373    -7.3946 C       1      m1    -0.0162
    739 H           -7.3836     5.7496    -8.0184 H       1      m1     0.0494
    740 O           -7.1242     5.7135   -10.6164 O       1      m1    -0.4241
    741 O           -6.2633     3.2220   -11.6275 O       1      m1    -0.4201
    742 H           -6.3940     4.3709    -6.9494 H       1      m1     0.0333
    743 C           -4.7499     6.5436    -8.2033 C       1      m1    -0.0188
    744 C           -3.9020     5.2907    -8.0188 C       1      m1     0.0248
    745 H           -3.0501     2.4234   -11.6689 H       1      m1     0.0414
    746 C           -2.9624     4.5743    -8.7781 C       1      m1     0.0838
    747 C           -2.8892     2.6189   -10.5955 C       1      m1    -0.0004
    748 C           -2.7520     3.5889    -9.7220 C       1      m1     0.0177
    749 H           -1.9061     5.1243   -11.4101 H       1      m1     0.0302
    750 O           -1.7320     3.6975    -7.3156 O       1      m1    -0.6424
    751 C           -1.0773     5.7640   -11.7447 C       1      m1    -0.0091
    752 H           -0.0634     3.1876   -11.4976 H       1      m1     0.0309
    753 H           -1.0916     2.5371    -8.6516 H       1      m1     0.0671
    754 C            0.2878     5.1820   -11.6284 C       1      m1     0.0063
    755 C            0.4359     3.8248   -11.0582 C       1      m1    -0.0362
    756 C            1.7729     3.1662   -10.6003 C       1      m1    -0.0008
    757 C            2.3771     4.6232    -8.3574 C       1      m1    -0.0226
    758 C            2.3338     3.3950    -9.2694 C       1      m1    -0.0116
    759 H            2.5708     5.6954    -8.5766 H       1      m1     0.0314
    760 H            4.5520     5.0279    -9.7918 H       1      m1     0.0237
    761 C            5.1613     2.7594   -11.6917 C       1      m1    -0.0080
    762 C            5.5544     4.5780   -10.0432 C       1      m1     0.0018
    763 C            5.5888     3.8980    -7.3007 C       1      m1     0.3068
    764 C            5.5655     3.2725   -10.6091 C       1      m1    -0.0130
    765 H            5.6965     2.7412    -7.9778 H       1      m1    -0.0287
    766 O            5.9771     5.1037    -7.1370 O       1      m1    -0.4527
    767 C            6.6754     5.5670   -10.6456 C       1      m1     0.0044
    768 H            8.2260     5.3145    -8.9758 H       1      m1     0.0836
    769 C            8.1175     5.2793   -10.9042 C       1      m1     0.0028
    770 C            8.6596     4.6954    -9.7793 C       1      m1    -0.0068
    771 C            9.8870     4.0965    -9.8486 C       1      m1     0.0055
    772 H           10.5059     3.3644    -9.0942 H       1      m1     0.0339
    773 C           10.6515     3.9000   -11.0833 C       1      m1    -0.0125
    774 H           11.7091     5.9545    -9.2642 H       1      m1     0.0462
    775 C           11.7110     2.9183   -10.9364 C       1      m1    -0.0078
    776 C           11.5440     6.7098   -10.0739 C       1      m1    -0.0269
    777 C           12.8805     3.4830   -10.1999 C       1      m1    -0.0028
    778 H           12.6743     7.0233    -9.9947 H       1      m1     0.0143
    779 C           14.2074     3.6210    -9.8402 C       1      m1    -0.0078
    780 C           15.2935     4.0670    -9.8987 C       1      m1     0.0132
    781 H           16.1546     2.3919    -8.8168 H       1      m1     0.0272
    782 C           16.6277     4.6003   -10.7876 C       1      m1     0.0068
    783 C           17.1807     2.3892   -11.2737 C       1      m1    -0.0123
    784 C           16.9564     5.8647   -10.6654 C       1      m1    -0.0068
    785 O           17.2770     5.9401    -7.8167 O       1      m1    -0.4568
    786 C           17.4773     3.6675   -10.9054 C       1      m1     0.0046
    787 C          -17.2837     8.0308   -11.4474 C       1      m1     0.0701
    788 O          -16.7412     7.5098    -9.8282 O       1      m1    -0.3463
    789 H          -13.8928     8.7201   -11.1808 H       1      m1     0.0463
    790 O          -14.0484     7.0409    -7.2490 O       1      m1    -0.4561
    791 C          -13.7963     7.6470   -11.0355 C       1      m1     0.0258
    792 C          -12.9388    10.4654    -8.8126 C       1      m1     0.0398
    793 C          -12.4735     7.3923   -10.4410 C       1      m1     0.0225
    794 C          -12.1215     9.9492    -9.8334 C       1      m1    -0.0202
    795 H          -11.5922    11.0139   -10.2093 H       1      m1     0.0039
    796 H          -11.7692    10.2855   -11.5421 H       1      m1     0.0023
    797 C          -11.6729     8.5931    -9.9609 C       1      m1    -0.0010
    798 H          -10.7430     8.4460    -9.4239 H       1      m1     0.0225
    799 H          -10.2895    10.2676    -8.8987 H       1      m1     0.0160
    800 C           -9.5858    10.8612   -11.8383 C       1      m1    -0.0487
    801 C           -6.6081     7.1067   -11.3219 C       1      m1     0.1194
    802 C           -6.0491     9.3623   -11.9139 C       1      m1     0.2131
    803 C           -5.7782     8.3545   -10.6915 C       1      m1    -0.0490
    804 H           -5.6783     6.7007    -8.5236 H       1      m1     0.0490
    805 C           -5.2938     9.0202    -9.6785 C       1      m1     0.0049
    806 C           -4.9983    10.2514   -11.8467 C       1      m1    -0.0792
    807 H           -4.3128    10.7183   -11.3018 H       1      m1     0.0324
    808 C           -4.4182     9.4884    -8.5834 C       1      m1    -0.0042
    809 H           -3.2569     9.8160    -8.6059 H       1      m1     0.0615
    810 H           -2.3821     8.3237   -10.3252 H       1      m1     0.0280
    811 C           -1.5033     7.7063   -10.5345 C       1      m1    -0.0181
    812 H           -0.0269     6.5431    -8.6648 H       1      m1     0.0451
    813 H           -2.3636     9.7524   -11.6482 H       1      m1     0.0109
    814 C           -0.9501     7.1431   -11.7479 C       1      m1    -0.0023
    815 C           -0.5319     7.3832    -9.5253 C       1      m1     0.0016
    816 H            0.2235    11.0665   -10.8937 H       1      m1    -0.0133
    817 C            0.6154     7.9817    -9.4170 C       1      m1     0.0326
    818 C            1.7631     8.8468    -9.5745 C       1      m1     0.0316
    819 C            2.9430     9.4235    -9.8707 C       1      m1    -0.0266
    820 H            2.8626    10.1807    -8.8523 H       1      m1     0.0369
    821 H            3.6175     7.7752   -10.6732 H       1      m1     0.0164
    822 C            4.0600     8.8316   -10.7466 C       1      m1    -0.0188
    823 H            5.4522    10.0126    -9.2980 H       1      m1     0.0221
    824 C            6.3854    10.0094    -9.3551 C       1      m1    -0.0233
    825 C            6.6874     6.8484   -10.3466 C       1      m1     0.0047
    826 C            6.9631     7.9859    -9.9413 C       1      m1     0.0074
    827 C            7.3832     8.9521    -8.9884 C       1      m1    -0.0251
    828 C            7.3686    10.9466    -9.8492 C       1      m1    -0.0203
    829 H            8.3309     8.9387    -8.2255 H       1      m1     0.0835
    830 H            8.3445    10.5576    -9.2418 H       1      m1     0.0226
    831 C            8.5542     7.7220   -11.9017 C       1      m1     0.0025
    832 C            9.3199     9.6265   -11.1195 C       1      m1    -0.0160
    833 C            9.8383     8.2281   -11.3896 C       1      m1     0.0338
    834 H            9.3388     9.8481   -10.0446 H       1      m1     0.0303
    835 C           10.6373     7.3931   -10.5468 C       1      m1     0.0224
    836 C           11.2426    10.7686    -9.4642 C       1      m1    -0.0253
    837 H           12.5378     8.4289    -9.9849 H       1      m1     0.0201
    838 H           11.6816     9.8918    -8.9518 H       1      m1     0.0449
    839 C           12.1775     9.4089   -10.7292 C       1      m1    -0.0131
    840 C           13.7250     9.5240   -11.1161 C       1      m1    -0.0247
    841 C           14.2674     9.0479   -10.0397 C       1      m1    -0.0106
    842 H           14.2158     9.9540   -12.1654 H       1      m1     0.0103
    843 C           14.9436     8.5319    -8.8320 C       1      m1    -0.0348
    844 H           14.3652     7.7733    -8.1258 H       1      m1     0.0325
    845 H           16.1894     8.6625    -8.7283 H       1      m1     0.0552
    846 H           17.4081    10.1673    -9.0118 H       1      m1     0.0505
    847 C           17.1906     7.1186   -10.4423 C       1      m1     0.1914
    848 H          -17.2736    15.3426    -8.5370 H       1      m1     0.0218
    849 H          -17.2755    12.1803    -8.9382 H       1      m1     0.0274
    850 H          -14.4579    11.6479    -7.9639 H       1      m1     0.0310
    851 C          -13.3790    11.4798    -7.9483 C       1      m1    -0.0206
    852 H          -13.2369    13.4692    -8.1102 H       1      m1     0.0148
    853 C          -12.5050    12.6790    -8.0973 C       1      m1    -0.0288
    854 H          -11.3376    13.4256    -9.0709 H       1      m1     0.0152
    855 C          -11.2627    12.7741    -7.2553 C       1      m1    -0.0214
    856 C          -10.7646    14.5919    -9.0663 C       1      m1    -0.0138
    857 C          -10.3694   -15.3150   -10.1852 C       1      m1    -0.0002
    858 C          -10.2847    13.9660    -7.8914 C       1      m1    -0.0008
    859 C           -9.6892    11.2170    -9.3287 C       1      m1    -0.0243
    860 C           -9.3894    11.9469   -10.5241 C       1      m1    -0.0014
    861 C           -8.9267    15.1633   -10.5191 C       1      m1    -0.0029
    862 C           -8.5934    13.9567    -7.9073 C       1      m1    -0.0179
    863 C           -8.3685    14.2668    -9.3179 C       1      m1     0.0201
    864 C           -8.3757    12.8158    -9.8772 C       1      m1    -0.0211
    865 H           -7.0460    13.0672    -9.8850 H       1      m1     0.0260
    866 C           -2.0182    13.2570   -11.4113 C       1      m1     0.0189
    867 C           -1.2857    12.3859   -10.7201 C       1      m1    -0.0874
    868 C           -0.5496    11.4474   -10.1262 C       1      m1     0.2719
    869 H           -0.4349    11.8618    -8.1132 H       1      m1     0.3150
    870 O           -0.2299    11.1655    -8.6991 O       1      m1    -0.6289
    871 H            0.6232    13.7626   -11.1679 H       1      m1     0.0150
    872 H            0.7657    15.0388   -10.0526 H       1      m1     0.0158
    873 C            1.2265    14.6837   -11.1080 C       1      m1    -0.0241
    874 C            2.0707    14.3968    -8.1528 C       1      m1    -0.0244
    875 H            1.7924    13.4697    -8.7444 H       1      m1     0.0308
    876 C            2.4181    14.0115   -10.9750 C       1      m1     0.0114
    877 C            2.8936    13.0993   -11.8752 C       1      m1    -0.0405
    878 C            3.4575    14.9597   -10.8485 C       1      m1    -0.0080
    879 H            4.3491    14.7886   -10.1044 H       1      m1     0.0129
    880 H            5.1090    13.5885    -8.7628 H       1      m1     0.0180
    881 H            4.2499    11.1666   -10.9721 H       1      m1     0.0166
    882 H            4.6803    14.3777    -7.4574 H       1      m1     0.0700
    883 H            5.9499    14.3922   -12.1396 H       1      m1     0.0256
    884 C            5.5536    12.7502    -9.3138 C       1      m1    -0.0247
    885 C            5.7981    13.3490   -11.8562 C       1      m1    -0.0232
    886 C            6.4732    13.0879   -10.5178 C       1      m1    -0.0010
    887 C            7.5825    12.3505    -9.6841 C       1      m1    -0.0025
    888 H            7.9971    12.0180    -7.7910 H       1      m1     0.0258
    889 C            8.1332    12.8626    -8.4410 C       1      m1    -0.0210
    890 C            8.5635    15.1471    -7.5212 C       1      m1     0.0049
    891 C            8.8428    13.7676    -7.4851 C       1      m1    -0.0040
    892 C            9.5744    13.4365   -10.6438 C       1      m1    -0.0339
    893 H            9.2033    12.3160   -10.3477 H       1      m1     0.0247
    894 H            9.8944    13.9959    -9.8388 H       1      m1     0.0259
    895 C           10.2911    12.8047   -11.7515 C       1      m1    -0.0154
    896 H           11.3277    11.8227    -9.1626 H       1      m1     0.0330
    897 H           11.2319    12.4877   -11.4869 H       1      m1     0.0216
    898 C           12.5011    11.0620   -10.3715 C       1      m1    -0.0082
    899 H           13.0761    13.4224    -8.4562 H       1      m1     0.0324
    900 C           13.4664    11.9564   -10.3578 C       1      m1    -0.0068
    901 C           13.9179    13.9358    -8.4553 C       1      m1    -0.0199
    902 C           14.1296    12.9887   -10.7381 C       1      m1    -0.0200
    903 H           13.9477    13.5870   -11.7538 H       1      m1     0.0257
    904 C           14.7709    13.6033    -9.5441 C       1      m1     0.0007
    905 C           14.9532    13.7138    -7.3755 C       1      m1     0.0039
    906 H           16.1675    11.7909    -8.7482 H       1      m1     0.0171
    907 C           16.0278    14.7311    -9.5693 C       1      m1    -0.0161
    908 C           16.8624    15.0063    -8.2067 C       1      m1    -0.0125
    909 H           16.5803    14.4738   -10.5496 H       1      m1     0.0480
    910 C           17.1944    11.1651    -8.4678 C       1      m1    -0.0459
    911 C          -16.7120   -14.7046    -4.2614 C       1      m1    -0.0486
    912 H          -16.3952   -14.2250    -3.2391 H       1      m1     0.0201
    913 H          -16.6028   -14.6124    -5.3327 H       1      m1     0.0216
    914 H          -14.9016   -13.9930    -3.0607 H       1      m1     0.0157
    915 C          -13.9414   -14.4520    -3.5539 C       1      m1    -0.0156
    916 H          -12.8733   -11.1174    -4.6462 H       1      m1     0.0159
    917 C          -13.0064   -13.2828    -4.0817 C       1      m1    -0.0192
    918 H          -13.3430   -12.0953    -3.1943 H       1      m1     0.0089
    919 C          -11.8786   -11.6163    -6.8567 C       1      m1     0.2157
    920 H          -12.1868   -14.6771    -2.6370 H       1      m1     0.0236
    921 C          -11.9160   -13.6902    -2.9191 C       1      m1    -0.0156
    922 H           -9.6559   -13.0189    -5.9890 H       1      m1     0.0787
    923 C          -10.5154   -13.5892    -3.7264 C       1      m1     0.0052
    924 C           -9.9100   -14.6610    -3.2183 C       1      m1    -0.0156
    925 C           -9.6974   -11.1543    -2.3118 C       1      m1     0.0011
    926 C           -9.6745   -12.9828    -4.9135 C       1      m1    -0.0363
    927 H           -9.3504   -11.8055    -4.5787 H       1      m1     0.0321
    928 C           -8.3301   -13.9063    -4.9179 C       1      m1     0.0024
    929 C           -7.9772   -15.1776    -4.2409 C       1      m1    -0.0270
    930 C           -6.9138   -13.4299    -5.5410 C       1      m1    -0.0201
    931 C           -6.7830   -11.8744    -5.5306 C       1      m1    -0.0044
    932 C           -6.6158   -11.1757    -3.1088 C       1      m1    -0.0262
    933 H           -6.9182   -14.0359    -6.3609 H       1      m1     0.0816
    934 H           -6.2868   -13.7676    -4.6171 H       1      m1     0.0205
    935 C           -6.2757   -11.2506    -6.5964 C       1      m1    -0.0320
    936 C           -6.2573   -11.0950    -4.5066 C       1      m1     0.2050
    937 H           -4.2326   -13.8315    -5.7214 H       1      m1     0.0328
    938 C           -3.7079   -14.3325    -5.0217 C       1      m1    -0.0235
    939 C           -3.3030   -13.1724    -4.1829 C       1      m1     0.0351
    940 C           -2.6561   -12.3391    -3.7129 C       1      m1     0.0040
    941 C           -2.4949   -11.5028    -2.7676 C       1      m1     0.0242
    942 C           -0.8445   -14.8320    -3.1050 C       1      m1    -0.0286
    943 H           -0.1385   -13.9381    -6.6900 H       1      m1     0.0164
    944 C            0.1388   -14.7122    -6.0968 C       1      m1    -0.0305
    945 C            0.2273   -14.1816    -3.6902 C       1      m1    -0.0046
    946 C            0.6718   -13.2745    -2.6579 C       1      m1     0.0122
    947 C            1.1327   -14.4642    -5.0957 C       1      m1    -0.0010
    948 C            2.5987   -13.9186    -5.3269 C       1      m1    -0.0058
    949 H            2.5338   -12.9064    -5.4148 H       1      m1     0.0280
    950 C            3.6241   -14.6953    -5.2028 C       1      m1    -0.0182
    951 C            4.7285   -15.1779    -5.2998 C       1      m1     0.1989
    952 O            5.2116   -11.4763    -2.9905 O       1      m1    -0.4466
    953 C            6.1006   -14.5233    -4.9466 C       1      m1    -0.0209
    954 C            6.8155   -13.2477    -4.5135 C       1      m1     0.0681
    955 C            8.2704   -12.8719    -4.8603 C       1      m1    -0.0104
    956 C            8.6665   -14.1950    -4.7570 C       1      m1    -0.0121
    957 C            9.0661   -11.5071    -5.0843 C       1      m1     0.0150
    958 H            9.7453   -13.2229    -2.9316 H       1      m1     0.0153
    959 H           10.8311   -14.8646    -6.8272 H       1      m1     0.0146
    960 H           11.0613   -14.6261    -3.3260 H       1      m1     0.0161
    961 H           12.2034   -12.2920    -2.9425 H       1      m1     0.0177
    962 C           15.2277   -14.6841    -6.5954 C       1      m1    -0.0194
    963 H           14.5293   -13.7621    -6.1527 H       1      m1     0.0225
    964 H           17.2976   -14.4253    -3.9734 H       1      m1     0.0190
    965 C          -17.2452    -9.3587    -2.6790 C       1      m1     0.0012
    966 C          -16.2030    -9.1600    -6.4956 C       1      m1     0.0088
    967 C          -16.1277   -10.2097    -2.3453 C       1      m1    -0.0092
    968 H          -14.8755   -10.9348    -5.2333 H       1      m1     0.0159
    969 C          -14.8661    -9.9607    -5.8926 C       1      m1    -0.0253
    970 C          -13.7283    -9.7617    -6.4581 C       1      m1     0.0138
    971 H          -12.8008    -6.5338    -6.9040 H       1      m1     0.0140
    972 C          -12.5326   -10.6815    -5.6326 C       1      m1    -0.0571
    973 H          -11.6649   -11.0626    -3.5638 H       1      m1     0.0132
    974 C          -11.2296   -10.0661    -5.2447 C       1      m1     0.0229
    975 C           -9.9469    -9.4233    -5.3276 C       1      m1     0.0021
    976 C           -9.7790    -6.8805    -7.1295 C       1      m1     0.0254
    977 C          -10.0452    -6.4496    -4.4608 C       1      m1     0.0089
    978 C           -9.6433    -8.9291    -4.0007 C       1      m1     0.0386
    979 C           -9.6969    -7.5164    -3.5321 C       1      m1     0.0205
    980 H           -9.3958    -7.6378    -2.5292 H       1      m1     0.0209
    981 C           -9.3116    -9.7824    -2.8932 C       1      m1    -0.0084
    982 H           -9.2170    -9.9631    -6.1466 H       1      m1     0.0858
    983 O           -7.2918    -7.8006    -4.7206 O       1      m1    -0.5139
    984 C           -6.0797    -7.9541    -4.8751 C       1      m1     0.3768
    985 C           -5.5276   -10.1676    -6.5280 C       1      m1     0.1123
    986 O           -4.8978   -10.3541    -4.7118 O       1      m1    -0.4503
    987 C           -5.0124    -8.9984    -7.0135 C       1      m1    -0.0174
    988 C           -4.6597    -7.9267    -4.8462 C       1      m1    -0.0895
    989 H           -4.4283    -8.2778    -3.8207 H       1      m1     0.0663
    990 H           -3.8945    -7.0540    -6.6215 H       1      m1     0.0101
    991 C           -3.9137    -8.2522    -6.1734 C       1      m1     0.0054
    992 H           -3.1047    -8.7380    -6.1526 H       1      m1     0.0365
    993 H           -1.8801   -10.7859    -3.0006 H       1      m1     0.0289
    994 C           -0.5549   -10.2210    -6.8282 C       1      m1    -0.0174
    995 H           -1.2662   -10.6000    -6.1891 H       1      m1     0.0261
    996 C           -0.0011    -8.9656    -6.9835 C       1      m1    -0.0015
    997 H            0.5514    -7.7673    -6.4991 H       1      m1     0.0205
    998 C            1.9505    -8.2519    -5.7369 C       1      m1    -0.0177
    999 C            2.4932    -7.2743    -4.9358 C       1      m1    -0.0021
   1000 H            3.4069    -8.1217    -3.5911 H       1      m1     0.0256
   1001 H            2.6526    -9.6108    -4.6414 H       1      m1     0.0269
   1002 C            3.5267    -9.2371    -3.8137 C       1      m1    -0.0279
   1003 H            4.6144    -9.5500    -4.2161 H       1      m1     0.0624
   1004 H            4.8775    -8.2231    -6.5792 H       1      m1     0.0176
   1005 C            6.1600    -6.6646    -3.0367 C       1      m1    -0.0113
   1006 H            8.1359    -8.9338    -3.4956 H       1      m1     0.0316
   1007 C            8.5349    -8.7218    -2.4375 C       1      m1    -0.0149
   1008 C            9.9873   -10.7005    -4.4541 C       1      m1    -0.0156
   1009 H           10.4409    -9.7136    -4.6080 H       1      m1     0.0508
   1010 O           13.3844    -8.0831    -5.7585 O       5      m5    -0.4437
   1011 C           14.0587    -7.6178    -4.5058 C       5      m5     0.3525
   1012 C           14.2125    -6.9819    -5.4719 C       5      m5     0.1550
   1013 H           15.0278    -8.1476    -2.8990 H       5      m5     0.3179
   1014 O           15.3372    -8.0529    -3.6887 O       5      m5    -0.6676
   1015 H          -17.5155    -9.4787    -3.7344 H       1      m1     0.0617
   1016 C          -16.9314    -4.1942    -5.3580 C       1      m1     0.0123
   1017 H          -15.7025    -3.2240    -3.5301 H       1      m1     0.0368
   1018 C          -16.5132    -3.1777    -4.4385 C       1      m1    -0.0037
   1019 C          -15.1337    -5.4516    -5.8295 C       1      m1     0.0090
   1020 C          -14.9820    -5.6095    -4.5936 C       1      m1    -0.0398
   1021 H          -14.7274    -4.8267    -4.0170 H       1      m1     0.0274
   1022 H          -14.2270    -6.4183    -4.2850 H       1      m1     0.0117
   1023 C          -13.3920    -4.1830    -2.5416 C       1      m1    -0.0154
   1024 H          -13.9451    -5.0811    -2.6556 H       1      m1     0.0120
   1025 C          -12.8223    -4.5284    -6.6280 C       1      m1     0.0133
   1026 H          -11.7546    -5.5983    -5.0826 H       1      m1     0.0170
   1027 C          -12.0009    -5.6447    -6.3808 C       1      m1    -0.0316
   1028 H          -11.6436    -2.9162    -2.6504 H       1      m1     0.0455
   1029 C          -10.2796    -6.0501    -5.9510 C       1      m1     0.0028
   1030 H           -9.9644    -5.4095    -4.0736 H       1      m1     0.0313
   1031 H           -9.7936    -4.4506    -2.7349 H       1      m1     0.0414
   1032 O           -6.8426    -2.7528    -4.3270 O       1      m1    -0.3876
   1033 H           -6.2602    -5.9193    -6.3362 H       1      m1     0.0612
   1034 H           -4.6207    -4.9752    -5.3664 H       1      m1     0.0388
   1035 C           -4.1576    -4.2162    -6.1829 C       1      m1    -0.0098
   1036 C           -3.8811    -3.4691    -3.3261 C       1      m1     0.0137
   1037 C           -3.4566    -3.0363    -6.2044 C       1      m1     0.0074
   1038 C           -2.7046    -4.0652    -3.3098 C       1      m1    -0.0057
   1039 C           -1.7035    -4.8556    -3.1685 C       1      m1    -0.0591
   1040 C           -0.5712    -4.2131    -4.0021 C       1      m1     0.0133
   1041 C           -0.2830    -2.5574    -6.6006 C       1      m1     0.3658
   1042 H           -0.3146    -4.1730    -5.1243 H       1      m1     0.0336
   1043 C           -0.3127    -3.3249    -2.7147 C       1      m1     0.0241
   1044 O            0.9151    -2.5063    -6.3299 O       1      m1    -0.5237
   1045 C            2.2346    -5.2619    -6.0112 C       1      m1    -0.0004
   1046 C            2.1746    -4.2498    -2.4569 C       1      m1     0.0864
   1047 C            2.5139    -5.9157    -4.7766 C       1      m1     0.0075
   1048 C            2.5817    -4.9307    -3.7162 C       1      m1     0.0170
   1049 H            2.7340    -4.3335    -6.5859 H       1      m1     0.0583
   1050 H            5.1626    -7.0171    -3.4404 H       1      m1     0.0225
   1051 C            6.1716    -5.7514    -6.4307 C       1      m1    -0.0036
   1052 C            6.6979    -5.0734    -5.5790 C       1      m1     0.0042
   1053 H            6.8176    -4.1759    -3.5689 H       1      m1     0.0297
   1054 C            7.2587    -5.9078    -3.5274 C       1      m1    -0.0042
   1055 C            7.3076    -4.4635    -4.4366 C       1      m1    -0.0250
   1056 C            8.6264    -3.9284    -4.9599 C       1      m1    -0.0005
   1057 C            9.7381    -3.3346    -5.1890 C       1      m1    -0.0063
   1058 C           10.8447    -2.7469    -5.2554 C       1      m1    -0.0004
   1059 H           13.2411    -4.4713    -5.5379 H       1      m1     0.0329
   1060 C           13.1375    -2.8380    -6.8776 C       1      m1    -0.0155
   1061 H           13.8584    -2.7586    -4.6213 H       1      m1     0.0333
   1062 C           13.7219    -3.5703    -5.4576 C       1      m1    -0.0360
   1063 H           15.8339    -4.5938    -4.6228 H       1      m1     0.0424
   1064 C           15.1708    -4.2337    -5.4260 C       1      m1    -0.0201
   1065 C           16.2337    -4.2920    -6.4562 C       1      m1    -0.0017
   1066 C          -17.5738    -5.0110    -6.3227 C       1      m1     0.0078
   1067 C          -17.2388     0.1243    -3.0390 C       1      m1     0.0536
   1068 H          -16.2614    -1.0580    -4.9022 H       1      m1     0.0443
   1069 C          -16.7569    -1.9568    -5.1132 C       1      m1     0.0179
   1070 C          -16.3776     1.0674    -3.5200 C       1      m1    -0.0464
   1071 H          -15.4968     0.5358    -3.9270 H       1      m1     0.0372
   1072 C          -14.6257     1.5484    -5.6510 C       1      m1    -0.0091
   1073 H          -14.3506     1.4393    -4.5250 H       1      m1     0.0307
   1074 C          -14.1320     0.8875    -6.8216 C       1      m1     0.0351
   1075 H          -13.4773    -1.6138    -7.3305 H       1      m1     0.0435
   1076 C          -13.8105    -0.5428    -2.7591 C       1      m1     0.1575
   1077 O          -13.2500    -0.9318    -4.0968 O       1      m1    -0.4333
   1078 C          -12.5656     0.1827    -3.1138 C       1      m1     0.1133
   1079 H          -12.3339     0.1802    -7.3081 H       1      m1     0.0241
   1080 C          -10.6288     1.8346    -3.0163 C       1      m1     0.0135
   1081 H          -10.3644     1.2411    -5.6304 H       1      m1     0.0206
   1082 H          -10.5791    -0.3476    -1.9931 H       1      m1     0.0238
   1083 C           -9.7964     2.2114    -5.4373 C       1      m1    -0.0233
   1084 C           -9.3132     1.6839    -3.9668 C       1      m1    -0.0295
   1085 H           -9.6895    -0.3192    -6.7501 H       1      m1     0.0250
   1086 H           -9.5605     0.2289    -4.0747 H       1      m1     0.0228
   1087 C           -8.5798    -1.8827    -7.2474 C       1      m1     0.0379
   1088 C           -7.9713    -1.1496    -6.1682 C       1      m1    -0.0438
   1089 H           -7.7695    -0.1683    -6.6670 H       1      m1     0.0193
   1090 C           -7.3901    -1.4611    -4.7017 C       1      m1     0.2393
   1091 C           -7.1586     1.9946    -6.4097 C       1      m1    -0.0123
   1092 C           -6.5525    -0.3909    -4.2629 C       1      m1    -0.0016
   1093 C           -6.1318     0.7931    -4.3476 C       1      m1     0.0072
   1094 C           -6.1463     1.7658    -5.3889 C       1      m1    -0.0100
   1095 C           -4.1018    -2.0099    -2.9447 C       1      m1    -0.0246
   1096 H           -3.3848    -0.3250    -2.7256 H       1      m1     0.0439
   1097 H           -4.0605     1.8663    -4.4891 H       1      m1     0.0163
   1098 C           -3.3202    -0.9004    -3.6668 C       1      m1    -0.0187
   1099 H           -3.2951    -0.3637    -4.5792 H       1      m1     0.0237
   1100 H           -3.6065    -0.1920    -6.1521 H       1      m1     0.0229
   1101 C           -2.3938    -0.8911    -6.6207 C       1      m1    -0.0019
   1102 C           -1.8690    -1.7801    -3.6483 C       1      m1    -0.0100
   1103 C           -1.3624    -1.6239    -4.6420 C       1      m1     0.0225
   1104 C           -1.1007    -1.3201    -6.0255 C       1      m1    -0.0710
   1105 H           -0.1972    -0.6153    -6.3370 H       1      m1     0.0579
   1106 C            1.3961     1.4958    -5.4594 C       1      m1    -0.0144
   1107 H            1.5306     1.0431    -2.7159 H       1      m1     0.0180
   1108 H            1.4211     1.0755    -4.4855 H       1      m1     0.0231
   1109 C            2.0380     0.8108    -6.6291 C       1      m1    -0.0092
   1110 C            3.4389     0.3207    -6.9253 C       1      m1     0.0051
   1111 H            4.1947    -1.9086    -5.1854 H       1      m1     0.0479
   1112 C            4.9517    -1.4829    -5.9795 C       1      m1    -0.0523
   1113 C            5.0986    -0.2701    -2.5828 C       1      m1    -0.0181
   1114 H            5.5649    -0.7565    -5.4380 H       1      m1     0.0220
   1115 H            5.2315    -2.0741    -2.9247 H       1      m1     0.0556
   1116 H            5.6373    -2.3493    -6.4669 H       1      m1     0.0231
   1117 H            5.3220     1.4425    -4.2574 H       1      m1     0.0172
   1118 C            5.9731    -1.3725    -3.3037 C       1      m1    -0.0329
   1119 C            6.1690     1.9583    -4.6180 C       1      m1    -0.0272
   1120 H            6.5120     1.0362    -2.7312 H       1      m1     0.0202
   1121 H            6.9893    -0.9937    -7.1179 H       1      m1     0.0175
   1122 C            7.2348     1.8043    -2.6314 C       1      m1    -0.0256
   1123 C            7.2621    -1.1587    -3.7216 C       1      m1    -0.0117
   1124 C            8.0279    -0.7438    -7.0302 C       1      m1    -0.0255
   1125 C            8.0984     0.3169    -5.8938 C       1      m1    -0.0089
   1126 C            8.2097    -0.3429    -4.5347 C       1      m1    -0.0031
   1127 H            7.0367    -2.6065    -3.3215 H       1      m1     0.0195
   1128 C            8.6738     1.6620    -6.3207 C       1      m1    -0.0044
   1129 C            9.5297    -0.0740    -3.7620 C       1      m1    -0.0214
   1130 H            9.6917     1.5063    -5.5534 H       1      m1     0.0285
   1131 H            9.3863     0.6972    -2.8216 H       1      m1     0.0274
   1132 C           10.5893    -0.7652    -4.1481 C       1      m1    -0.0019
   1133 C           11.2652    -1.8378    -6.2159 C       1      m1    -0.0147
   1134 C           11.5647    -1.5358    -4.6425 C       1      m1    -0.0043
   1135 H           12.6645    -0.0020    -3.2610 H       1      m1     0.0289
   1136 C           12.6515    -1.5757    -6.9789 C       1      m1    -0.0107
   1137 C           12.9982    -1.0491    -3.8656 C       1      m1    -0.0198
   1138 C           13.9816    -0.3182    -4.7177 C       1      m1    -0.0411
   1139 H           14.2139    -0.9053    -5.5893 H       1      m1     0.0202
   1140 C           14.8654     2.0343    -2.5867 C       1      m1    -0.0226
   1141 H           14.5314     0.4330    -3.9471 H       1      m1     0.0184
   1142 H           15.3210     1.0487    -2.2610 H       1      m1     0.0182
   1143 H           16.3461    -2.1000    -4.7746 H       1      m1     0.0187
   1144 C           16.4467    -1.5915    -2.5555 C       1      m1     0.3156
   1145 C           17.2065    -1.5188    -5.3978 C       1      m1    -0.0272
   1146 H           16.6705    -0.9163    -6.3714 H       1      m1     0.0459
   1147 H          -17.1332     1.3169    -6.5809 H       1      m1     0.0544
   1148 C          -17.1453     2.4283    -6.4593 C       1      m1    -0.0150
   1149 C          -16.9574     2.4427    -3.5995 C       1      m1    -0.0149
   1150 C          -16.4223     4.8570    -3.2580 C       1      m1    -0.0058
   1151 C          -16.0403     5.1435    -6.8818 C       1      m1    -0.0939
   1152 C          -16.1742     3.4823    -3.6787 C       1      m1    -0.0209
   1153 C          -15.6024     2.2994    -6.5622 C       1      m1    -0.0101
   1154 H          -15.6569     3.4679    -6.6325 H       1      m1     0.0254
   1155 C          -15.1654     6.2278    -6.9287 C       1      m1     0.3263
   1156 H          -15.0562     3.3856    -3.3939 H       1      m1     0.0138
   1157 C          -13.1908     3.4568    -6.9979 C       1      m1     0.0098
   1158 C          -12.8869     4.6026    -6.2483 C       1      m1    -0.0667
   1159 C          -12.7635     5.9285    -6.8245 C       1      m1     0.1739
   1160 H          -12.5177     4.3427    -5.2131 H       1      m1     0.0251
   1161 H          -11.4137     4.9341    -3.6166 H       1      m1     0.0161
   1162 C          -11.3407     3.1252    -2.8372 C       1      m1    -0.0224
   1163 C          -11.0954     3.7589    -4.0009 C       1      m1    -0.0177
   1164 C          -10.2433     3.4726    -5.1160 C       1      m1     0.0022
   1165 C           -9.8156     6.3062    -3.6784 C       1      m1    -0.0153
   1166 C           -9.4544     4.2545    -5.5417 C       1      m1    -0.0049
   1167 C           -9.2685     5.6871    -4.8508 C       1      m1    -0.0189
   1168 H           -9.1944     6.8305    -2.7768 H       1      m1     0.0196
   1169 H           -8.2725     1.9603    -3.4339 H       1      m1     0.0177
   1170 H           -8.9247     6.6050    -5.3860 H       1      m1     0.0162
   1171 C           -8.5050     2.6847    -6.3131 C       1      m1     0.0000
   1172 C           -8.5852     3.9536    -6.8403 C       1      m1    -0.0067
   1173 H           -7.8927     4.2458    -2.8892 H       1      m1     0.0165
   1174 C           -6.0876     6.1944    -2.6532 C       1      m1    -0.0118
   1175 H           -5.8026     5.1367    -4.8341 H       1      m1     0.0071
   1176 C           -5.0848     3.1050    -5.1450 C       1      m1    -0.0056
   1177 C           -4.9616     4.4012    -5.6780 C       1      m1    -0.0033
   1178 C           -3.6332     2.6554    -4.8745 C       1      m1     0.0222
   1179 C           -3.8438     5.3149    -6.5367 C       1      m1    -0.0041
   1180 C           -3.6318     6.8073    -5.9022 C       1      m1    -0.0041
   1181 C           -3.1729     3.3162    -3.9890 C       1      m1    -0.0050
   1182 C           -3.0203     3.8471    -2.7830 C       1      m1    -0.0113
   1183 C           -2.7339     6.7877    -4.8295 C       1      m1    -0.0161
   1184 C           -2.2368     5.2296    -6.3285 C       1      m1     0.1533
   1185 C           -1.7056     5.7330    -5.2742 C       1      m1     0.0061
   1186 H           -0.1413     5.3793    -3.2326 H       1      m1     0.0188
   1187 H           -1.0928     3.9775    -7.7915 H       1      m1     0.3055
   1188 C           -0.3745     5.5240    -4.5455 C       1      m1    -0.0596
   1189 H           -1.0909     2.2159    -2.6617 H       1      m1     0.0180
   1190 C            0.3489     4.5194    -5.1833 C       1      m1     0.0418
   1191 H            1.0977     6.5854    -3.0756 H       1      m1     0.0518
   1192 C            1.5366     2.6635    -5.6174 C       1      m1     0.0070
   1193 C            1.5928     4.0741    -5.9523 C       1      m1    -0.0056
   1194 C            1.9545     4.2299    -7.1977 C       1      m1     0.0131
   1195 C            3.6693     2.6108    -3.1571 C       1      m1    -0.0140
   1196 H            4.6898     3.2183    -3.3285 H       1      m1     0.0278
   1197 H            3.6339     4.1639    -5.7440 H       1      m1     0.0478
   1198 C            4.4938     3.5213    -6.3101 C       1      m1    -0.0577
   1199 C            5.4508     2.9898    -5.3573 C       1      m1     0.0190
   1200 C            7.1226     2.6600    -3.7011 C       1      m1    -0.0057
   1201 H            7.9289     3.4867    -3.9467 H       1      m1     0.0466
   1202 O            9.4971     5.9583    -6.5968 O       1      m1    -0.4652
   1203 H           12.7517     2.1460    -3.6780 H       1      m1     0.0300
   1204 H           13.5266     5.3605    -5.2695 H       1      m1     0.0273
   1205 C           13.6636     2.6992    -3.3093 C       1      m1    -0.0208
   1206 C           13.8387     4.4195    -4.8227 C       1      m1    -0.0169
   1207 C           14.4639     3.3122    -4.5287 C       1      m1    -0.0176
   1208 H           15.3746     2.9674    -5.1436 H       1      m1     0.0119
   1209 H           15.9262     3.1950    -6.7264 H       1      m1     0.0292
   1210 C           17.0813     3.4505    -6.7803 C       1      m1    -0.0810
   1211 C           17.3879     5.2229    -3.2470 C       1      m1    -0.0082
   1212 H           17.2173     2.4365    -3.4142 H       1      m1     0.0141
   1213 C          -17.6150     4.9265    -7.2120 C       1      m1     0.3434
   1214 H          -17.3635     7.6450    -4.4840 H       1      m1     0.0375
   1215 C          -16.6388    10.6914    -5.0220 C       1      m1     0.0035
   1216 C          -15.1315    10.8700    -5.0880 C       1      m1     0.0004
   1217 C          -14.3494     9.3082    -2.7768 C       1      m1    -0.0127
   1218 C          -14.5482    10.2024    -4.0159 C       1      m1     0.0039
   1219 C          -14.1343     7.9065    -2.5794 C       1      m1    -0.0211
   1220 H          -13.7542     7.3502    -3.3598 H       1      m1     0.0288
   1221 H          -12.5499    10.9510    -4.6645 H       1      m1     0.0233
   1222 C          -11.9770     8.8423    -5.4612 C       1      m1     0.0360
   1223 C          -11.6715     7.5211    -5.3553 C       1      m1     0.0054
   1224 C          -12.0039    10.0041    -4.8309 C       1      m1    -0.0240
   1225 C          -10.7120    10.0407    -4.0695 C       1      m1    -0.0005
   1226 C          -10.6015     7.3436    -4.0910 C       1      m1    -0.0086
   1227 C          -10.0151     8.6147    -3.8781 C       1      m1     0.0006
   1228 C           -8.6536     8.4497    -3.8298 C       1      m1    -0.0189
   1229 H           -7.8225     7.8516    -3.9681 H       1      m1     0.0160
   1230 C           -8.0145    10.4115    -2.8311 C       1      m1     0.0017
   1231 H           -6.0646    10.2938    -4.7163 H       1      m1     0.0214
   1232 C           -5.3954    10.2781    -3.6303 C       1      m1    -0.0053
   1233 C           -5.2361     7.1659    -3.0659 C       1      m1    -0.0215
   1234 H           -5.0871     6.9906    -4.2530 H       1      m1     0.0120
   1235 C           -4.5606     8.9555    -7.2679 C       1      m1    -0.0122
   1236 C           -4.4959     7.4675    -6.9852 C       1      m1    -0.0014
   1237 H           -4.1146     9.4192    -6.4397 H       1      m1     0.0507
   1238 H           -3.4244     9.7793    -2.4500 H       1      m1     0.0123
   1239 C           -3.9751     9.8797    -3.4850 C       1      m1    -0.0277
   1240 H           -3.6746     9.0038    -3.9259 H       1      m1     0.0250
   1241 H           -2.0324     7.0499    -4.0579 H       1      m1     0.0282
   1242 C            0.1801     9.9023    -3.1621 C       1      m1     0.0115
   1243 C            0.0432     8.4184    -2.7539 C       1      m1     0.0010
   1244 O            0.1785     7.4424    -5.9672 O       1      m1    -0.4612
   1245 C            0.4333     6.8591    -4.8671 C       1      m1     0.3086
   1246 C            0.8526     7.4610    -3.4924 C       1      m1    -0.0466
   1247 H            1.6701    10.2350    -6.6853 H       1      m1     0.0681
   1248 C            1.6144    10.9265    -5.7318 C       1      m1     0.0070
   1249 C            2.9961    10.9696    -5.0403 C       1      m1    -0.0216
   1250 H            2.6923     8.3927    -5.9108 H       1      m1     0.0561
   1251 C            3.7085     8.9286    -5.6656 C       1      m1    -0.0185
   1252 C            4.0599    10.1290    -5.2813 C       1      m1     0.0142
   1253 H            4.7213     7.5964    -6.5007 H       1      m1     0.0607
   1254 C            4.7814     8.5630    -6.3173 C       1      m1    -0.0215
   1255 C            5.1125     8.9290    -2.4910 C       1      m1    -0.0027
   1256 H            4.8197     7.6826    -2.5908 H       1      m1     0.0602
   1257 C            5.4076    10.1426    -5.2097 C       1      m1     0.0035
   1258 C            5.5793    10.0825    -2.9931 C       1      m1    -0.0095
   1259 C            6.0737     8.7979    -5.8382 C       1      m1    -0.0096
   1260 C            6.1600    10.8930    -4.3763 C       1      m1    -0.0010
   1261 H            6.6796     9.1079    -6.7081 H       1      m1     0.0284
   1262 H            6.6524     7.3077    -4.3232 H       1      m1     0.0349
   1263 C            7.1407     7.9016    -5.1939 C       1      m1     0.0161
   1264 C            8.1028     7.3261    -5.8339 C       1      m1    -0.0368
   1265 C            8.2256     7.8942    -2.3310 C       3      m3    -0.0193
   1266 H            8.4044     8.2830    -3.5543 H       3      m3     0.0237
   1267 C            9.1455     7.2165    -6.6608 C       1      m1     0.5089
   1268 O           10.0287     8.4557    -7.2346 O       1      m1    -0.5364
   1269 C           11.3290     8.8655    -6.6374 C       1      m1     0.2040
   1270 H           10.9695     6.1630    -3.1499 H       3      m3     0.0415
   1271 C           11.5508    10.9312    -3.5166 C       1      m1     0.0891
   1272 C           11.6070    10.1145    -5.8901 C       1      m1     0.1862
   1273 C           12.2587     7.7872    -6.4642 C       1      m1    -0.0073
   1274 C           12.6537    10.1591    -3.8675 C       1      m1    -0.0443
   1275 C           13.0557     9.9531    -5.3743 C       1      m1    -0.0177
   1276 C           13.1392     6.9383    -6.3985 C       1      m1    -0.0051
   1277 C           14.0368    10.0676    -3.0180 C       1      m1     0.3052
   1278 H           13.8141     6.1769    -6.8759 H       1      m1     0.0277
   1279 C           14.1849     9.2006    -5.6277 C       1      m1    -0.0318
   1280 H           14.2592     8.9744    -3.4691 H       1      m1    -0.0130
   1281 H           15.2043     8.6522    -5.4491 H       1      m1     0.0181
   1282 H           16.3617     9.6714    -7.3948 H       1      m1     0.0297
   1283 H           16.5543     8.0899    -5.3002 H       1      m1     0.0364
   1284 H           16.4876     8.9900    -2.7339 H       1      m1     0.0366
   1285 C           16.6590     7.9889    -3.0378 C       1      m1    -0.0228
   1286 C           16.8171     6.5894    -2.9662 C       1      m1     0.0028
   1287 C           16.7143    10.2338    -6.5139 C       1      m1    -0.0187
   1288 C           17.1554     8.5732    -4.5575 C       1      m1    -0.0430
   1289 C           17.4875     9.8283    -5.3846 C       1      m1     0.0193
   1290 C          -16.8174    11.9651    -5.5001 C       1      m1    -0.0047
   1291 C          -16.5665    13.2957    -5.0624 C       1      m1    -0.0051
   1292 C          -16.4256    14.0789    -6.3931 C       1      m1    -0.0227
   1293 C          -16.4922    14.4182    -4.1901 C       1      m1    -0.0015
   1294 H          -15.2984    14.7454    -6.4084 H       1      m1     0.0097
   1295 C          -15.4128    14.1380    -3.3712 C       1      m1    -0.0008
   1296 H          -14.4132    11.6524    -5.7211 H       1      m1     0.0174
   1297 C          -14.1321    14.8151    -4.0595 C       1      m1    -0.0201
   1298 H          -13.5066    14.4770    -4.9411 H       1      m1     0.0156
   1299 H          -10.9384    12.9123    -3.9075 H       1      m1     0.0146
   1300 C          -10.8364    12.3008    -2.7728 C       1      m1    -0.0259
   1301 H          -11.2899    12.3260    -6.1236 H       1      m1     0.0153
   1302 C          -10.1196    11.2349    -3.7137 C       1      m1    -0.0015
   1303 C           -8.9337    15.0058    -3.3709 C       1      m1    -0.0024
   1304 C           -8.5932    11.4427    -3.6286 C       1      m1    -0.0070
   1305 H           -8.3976    14.8850    -7.3933 H       1      m1     0.0446
   1306 H           -7.0086    15.3120    -4.0471 H       1      m1     0.0224
   1307 C           -4.0366    14.8714    -4.6752 C       1      m1    -0.0411
   1308 H           -4.6731    14.4484    -3.9400 H       1      m1     0.0427
   1309 C           -3.7067    14.4674    -5.8384 C       1      m1     0.1003
   1310 C           -3.4161    11.0497    -4.1310 C       1      m1    -0.0113
   1311 C           -3.1806   -15.3407    -6.8040 C       1      m1    -0.0097
   1312 O           -3.3302    12.4805    -6.3625 O       1      m1    -0.3890
   1313 C           -2.9453    12.2047    -4.7905 C       1      m1     0.1642
   1314 C           -1.4861    12.6149    -4.8089 C       1      m1    -0.0173
   1315 C           -1.0307    13.1745    -3.4028 C       1      m1    -0.0098
   1316 H           -1.9605    13.5508    -5.5935 H       1      m1     0.0665
   1317 C           -0.8828    14.3873    -3.1404 C       1      m1     0.0236
   1318 C            0.3052    11.2218    -3.3246 C       1      m1    -0.0094
   1319 C            0.7849    11.6161    -4.7102 C       1      m1     0.0146
   1320 C            0.9844    14.8661    -5.9573 C       1      m1     0.0034
   1321 H            2.0251    13.4069    -2.9754 H       1      m1     0.0292
   1322 C            1.9203    14.0089    -6.7934 C       1      m1     0.0033
   1323 H            2.2055    13.0731    -6.2416 H       1      m1     0.0419
   1324 H            3.5553    11.9931    -4.4939 H       1      m1     0.0551
   1325 O            4.8322    13.9497    -5.4115 O       1      m1    -0.5218
   1326 H            5.4104    13.2380    -2.9853 H       1      m1     0.0457
   1327 C            6.2819    14.0912    -5.2666 C       1      m1     0.2476
   1328 C            6.9967    15.1679    -5.1288 C       1      m1    -0.0650
   1329 C            7.2411    11.7915    -4.5558 C       1      m1     0.0111
   1330 C            7.4749    12.9300    -5.1769 C       1      m1    -0.0377
   1331 C            8.6611    15.2559    -4.8288 C       1      m1     0.0022
   1332 C            8.8678    13.0248    -6.0355 C       1      m1     0.0000
   1333 H            9.5395    12.2607    -6.5250 H       1      m1     0.0988
   1334 H            8.4452    12.3387    -3.2633 H       1      m1     0.0210
   1335 C            9.4021    12.1011    -2.5571 C       1      m1    -0.0216
   1336 C            9.6243    14.1935    -5.1564 C       1      m1    -0.0172
   1337 H            9.5954    13.9768    -4.0861 H       1      m1     0.0315
   1338 C           10.6125    11.4390    -2.9700 C       1      m1     0.0169
   1339 H           10.5956    14.4788    -5.7712 H       1      m1     0.0360
   1340 O           11.1611    11.5200    -5.7739 O       1      m1    -0.4285
   1341 H           14.5517    14.3837    -5.4373 H       1      m1     0.0225
   1342 C           14.4490    14.7662    -6.5196 C       1      m1    -0.0130
   1343 H           15.3093    13.9458    -2.8851 H       1      m1     0.0232
   1344 C           14.5579    13.2777    -2.5679 C       1      m1    -0.0547
   1345 H           15.0205    12.1803    -2.4194 H       1      m1     0.0679
   1346 C           16.3247    14.1476    -7.3742 C       1      m1    -0.0041
   1347 C           16.9007    11.3598    -7.0709 C       1      m1     0.0044
   1348 C           17.4382    13.6640    -6.7412 C       1      m1    -0.0042
   1349 C           17.6022    12.2295    -6.5158 C       1      m1    -0.0032
   1350 H          -17.0009   -11.6194     1.4515 H       1      m1     0.0171
   1351 C          -16.0994   -12.2623     1.7838 C       1      m1    -0.0168
   1352 C          -15.5133   -10.9474    -1.6854 C       1      m1    -0.0028
   1353 H          -14.7664   -14.2805     0.7864 H       1      m1     0.0196
   1354 C          -15.2398   -11.7099    -0.5871 C       1      m1    -0.0037
   1355 C          -15.0272   -12.1725     0.7437 C       1      m1    -0.0181
   1356 C          -14.6749   -14.7515     1.8408 C       1      m1    -0.0212
   1357 H          -14.0169   -12.6885     0.7760 H       1      m1     0.0188
   1358 H          -12.7530   -11.9904    -1.6801 H       1      m1     0.0196
   1359 C          -12.1306   -14.3450    -0.1309 C       1      m1    -0.0012
   1360 C          -11.9789   -12.6306    -1.8539 C       1      m1    -0.0166
   1361 C          -11.6034   -13.3496    -0.5454 C       1      m1    -0.0171
   1362 C          -11.2709   -11.0118    -2.2817 C       1      m1    -0.0186
   1363 H          -10.9919   -12.7641     0.4772 H       1      m1     0.0135
   1364 H          -10.8232   -11.4095     1.5188 H       1      m1     0.0198
   1365 C           -8.9640   -10.9040     2.3142 C       1      m1     0.0095
   1366 C           -8.7734   -14.7459     1.1419 C       1      m1     0.0064
   1367 C           -8.6995   -11.9521    -2.1100 C       1      m1    -0.0258
   1368 H           -8.9337   -12.8753    -1.7223 H       1      m1     0.0190
   1369 C           -7.7497   -14.2737     0.1158 C       1      m1    -0.0128
   1370 H           -7.9914   -14.3552    -1.0625 H       1      m1     0.0180
   1371 C           -7.6342   -11.0405    -2.2646 C       1      m1     0.0039
   1372 C           -6.8923   -14.4170     2.2095 C       1      m1     0.0095
   1373 C           -6.5687   -14.3552     0.7121 C       1      m1    -0.0105
   1374 H           -5.4783   -14.3379     0.2391 H       1      m1     0.0752
   1375 H           -4.5362   -11.3509     0.8762 H       1      m1     0.0187
   1376 H           -3.5462   -14.9860     1.8507 H       1      m1     0.0790
   1377 O           -3.2979   -14.1846    -0.8789 O       1      m1    -0.4310
   1378 C           -2.8805   -12.9197    -0.8213 C       1      m1     0.2624
   1379 C           -2.4352   -13.2418     0.5502 C       1      m1    -0.0126
   1380 C           -2.3144   -11.5703    -1.3692 C       1      m1    -0.0876
   1381 H           -2.1819   -11.3127     1.4949 H       1      m1     0.0175
   1382 H           -2.3239   -14.3852     0.7571 H       1      m1     0.1298
   1383 C           -1.6112   -12.0302     0.9169 C       1      m1    -0.0328
   1384 H           -2.4074   -10.8724    -0.6518 H       1      m1     0.0302
   1385 H           -1.6173   -14.5595    -2.4360 H       1      m1     0.0808
   1386 H            0.9891   -11.1204    -1.9895 H       1      m1     0.0253
   1387 C            1.2704   -12.2406    -1.8879 C       1      m1    -0.0349
   1388 H            1.5390   -12.5804    -0.7294 H       1      m1     0.0292
   1389 C            1.9992   -11.2350     1.0497 C       1      m1    -0.0380
   1390 H            1.7476   -11.7162     1.8874 H       1      m1     0.0240
   1391 H            3.1731   -13.0460    -0.7104 H       1      m1     0.0174
   1392 C            3.8701   -13.4778    -1.4025 C       1      m1    -0.0307
   1393 C            4.3220   -12.2233    -1.8823 C       1      m1     0.1293
   1394 C            4.8036   -14.7254     2.2138 C       1      m1    -0.0749
   1395 H            4.5407   -13.6332     2.1361 H       1      m1     0.0326
   1396 C            5.0216   -14.5584    -1.0588 C       1      m1    -0.0055
   1397 H            5.5271   -11.9060     2.1656 H       1      m1     0.0179
   1398 C            6.4423   -13.8856    -1.3672 C       1      m1     0.0276
   1399 C            6.3880   -11.4043     1.6764 C       1      m1    -0.0579
   1400 C            6.9357   -14.8423     2.3852 C       1      m1     0.0004
   1401 C            6.6908   -12.2322     0.8245 C       1      m1     0.0145
   1402 C            7.0937   -12.9960    -0.2342 C       1      m1     0.0035
   1403 C            7.4024   -15.2068    -1.5099 C       1      m1    -0.0338
   1404 C            7.6246   -14.0293    -2.4835 C       1      m1     0.0084
   1405 C            8.1820   -14.9341     1.7398 C       1      m1    -0.0242
   1406 C            8.4860   -13.2807    -0.0293 C       1      m1     0.0062
   1407 H            8.9112   -15.1870     2.3217 H       1      m1     0.0184
   1408 C            8.5469   -14.7153     0.3014 C       1      m1    -0.0025
   1409 C            9.7085   -12.4524    -0.5334 C       1      m1    -0.0128
   1410 C            9.9980   -12.3432    -2.0305 C       1      m1    -0.0097
   1411 H            9.5290   -14.8352    -2.2283 H       1      m1     0.0266
   1412 H           10.2051   -12.1161     0.5054 H       1      m1     0.0341
   1413 C           10.4995   -14.9349    -2.4018 C       1      m1    -0.0480
   1414 C           11.0583   -11.3446    -1.8176 C       1      m1    -0.0017
   1415 C           12.4697   -11.3435    -2.4003 C       1      m1    -0.0093
   1416 H           14.5410   -12.9025     0.2165 H       1      m1     0.0160
   1417 C           15.4073   -13.3862     0.8244 C       1      m1    -0.0169
   1418 C           15.7262   -13.6246     2.1906 C       1      m1    -0.0139
   1419 C           15.8227   -14.6192     0.0669 C       1      m1    -0.0007
   1420 C           17.0367   -15.0157     0.7235 C       1      m1    -0.0218
   1421 C           17.1702   -14.2324     1.9225 C       1      m1    -0.0030
   1422 C          -17.3664    -8.0310    -2.1620 C       1      m1     0.0129
   1423 H          -17.1966    -6.9169    -2.5551 H       1      m1     0.0360
   1424 H          -14.1081    -8.4171     1.5555 H       1      m1     0.0199
   1425 C          -13.1398    -7.9576     1.3889 C       1      m1    -0.0188
   1426 H          -13.1877    -8.3327    -1.1667 H       1      m1     0.0163
   1427 C          -12.5146    -8.9026    -0.7107 C       1      m1    -0.0237
   1428 C          -12.0696    -8.0378     0.5136 C       1      m1    -0.0162
   1429 C          -11.9471   -10.0856    -1.3891 C       1      m1    -0.0093
   1430 H          -10.9627    -8.1328     0.6851 H       1      m1     0.0169
   1431 C           -7.9397    -9.6200    -2.1580 C       1      m1     0.0147
   1432 H           -7.9736    -7.1024    -1.3160 H       1      m1     0.0301
   1433 C           -7.1062    -9.7103     1.4307 C       1      m1    -0.0085
   1434 C           -6.9885    -7.1551    -0.5911 C       1      m1    -0.0317
   1435 C           -6.6921    -9.1169    -1.9236 C       1      m1     0.0114
   1436 C           -5.9345    -9.3038     0.6009 C       1      m1    -0.0099
   1437 C           -6.0107    -8.3863    -0.5889 C       1      m1    -0.0169
   1438 C           -5.7727   -10.2399    -2.2048 C       1      m1     0.0453
   1439 C           -5.2466   -10.7022     0.3382 C       1      m1    -0.0181
   1440 C           -5.2955   -10.6974    -0.9201 C       1      m1    -0.0047
   1441 H           -4.9482    -7.9682    -0.8126 H       1      m1     0.0161
   1442 H           -3.5045    -6.9177    -0.0889 H       1      m1     0.0168
   1443 H           -2.9834    -8.8082     2.3698 H       1      m1     0.0255
   1444 C           -1.1837    -6.8955     1.6833 C       1      m1    -0.0395
   1445 H            1.8909    -6.7923     0.7202 H       1      m1     0.0403
   1446 H            0.5200    -8.5454     0.7513 H       1      m1     0.0383
   1447 C            1.6866    -7.9132     1.0021 C       1      m1    -0.0261
   1448 C            2.1760   -10.4732     0.3076 C       1      m1    -0.0092
   1449 C            2.7330    -8.2153    -0.2509 C       1      m1    -0.0166
   1450 H            2.2970    -8.0953     1.7948 H       1      m1     0.0269
   1451 C            2.8127    -9.4222    -0.6524 C       1      m1    -0.0097
   1452 H            2.9042    -7.5731    -1.1665 H       1      m1     0.0367
   1453 C            3.5952    -9.7110    -2.1083 C       1      m1    -0.0354
   1454 C            4.4842   -10.7505    -1.9285 C       1      m1     0.1665
   1455 H            4.7996    -7.4596    -0.3561 H       1      m1     0.0214
   1456 C            5.6538    -8.1384    -0.6336 C       1      m1    -0.0295
   1457 H            6.1210    -9.1731     0.9143 H       1      m1     0.0150
   1458 C            6.5382    -7.6079    -1.5951 C       1      m1     0.0062
   1459 C            6.7297    -9.2505    -0.0077 C       1      m1    -0.0344
   1460 H            6.3177    -9.7739    -0.8392 H       1      m1     0.0371
   1461 H            6.9602    -8.8344     2.4706 H       1      m1     0.0202
   1462 C            7.5040    -8.0285     2.2828 C       1      m1    -0.0056
   1463 C            7.8442    -7.4668     0.9898 C       1      m1    -0.0161
   1464 C            8.0928    -8.5428     0.0825 C       1      m1     0.0125
   1465 C            7.9256    -8.1173    -1.3356 C       1      m1    -0.0025
   1466 C            9.6513    -9.4419    -1.8464 C       1      m1     0.0057
   1467 C           10.9463    -9.9564    -1.4258 C       1      m1     0.0002
   1468 C           11.4553    -7.6231    -1.7257 C       1      m1     0.0015
   1469 C           11.9021    -8.9414    -1.8939 C       1      m1     0.0049
   1470 C           12.1651    -6.5351    -1.7523 C       1      m1    -0.0269
   1471 C           13.1975    -9.5932    -1.1340 C       1      m1    -0.0233
   1472 H           13.7806    -9.7431     1.5260 H       1      m1     0.0171
   1473 C           13.7490   -10.8754    -1.6901 C       1      m1     0.0121
   1474 H           13.7318    -8.9850    -0.4187 H       1      m1     0.0176
   1475 C           14.8477   -10.3087     1.2195 C       1      m1    -0.0213
   1476 C           14.8372   -10.9472     2.4071 C       1      m1    -0.0030
   1477 H           15.2010    -7.1631     1.9548 H       1      m1     0.0118
   1478 C           15.6618    -9.4399     0.4424 C       1      m1    -0.0073
   1479 C           16.8509    -9.4255    -0.0424 C       1      m1    -0.0134
   1480 C           17.3680    -7.9942    -0.8051 C       1      m1    -0.0015
   1481 H          -17.5935   -10.0316     0.4742 H       1      m1     0.0165
   1482 C          -16.8923    -5.9936     0.5050 C       1      m1    -0.0026
   1483 H          -17.0788    -2.0219     0.3255 H       1      m1     0.0309
   1484 C          -17.1320    -2.8488     0.9631 C       1      m1    -0.0326
   1485 C          -16.1647    -5.1614     1.4344 C       1      m1     0.0016
   1486 C          -16.0706    -3.7434     1.0893 C       1      m1    -0.0071
   1487 H          -15.3901    -3.0819     1.6168 H       1      m1     0.0196
   1488 C          -14.0761    -3.0808    -1.8252 C       1      m1     0.0183
   1489 C          -11.9698    -3.9766    -2.4306 C       1      m1    -0.0175
   1490 C          -11.3726    -3.0788     1.4634 C       1      m1    -0.0102
   1491 H          -10.7292    -5.0406    -1.3941 H       1      m1     0.0197
   1492 C          -11.0428    -3.0093     0.2267 C       1      m1    -0.0099
   1493 C          -10.5351    -2.8791    -1.1821 C       1      m1    -0.0143
   1494 C          -10.4750    -4.2367    -1.9945 C       1      m1    -0.0382
   1495 H           -9.2489    -1.4400     2.8221 H       1      m1     0.0466
   1496 H           -7.9360    -2.8193    -0.5986 H       1      m1     0.0318
   1497 H           -8.0348    -4.3834     0.6419 H       1      m1     0.0184
   1498 C           -7.6929    -4.1518     1.7598 C       1      m1    -0.0280
   1499 H           -6.8942    -6.1835    -0.0718 H       1      m1     0.0171
   1500 C           -6.6101    -3.2979     1.6373 C       1      m1     0.0302
   1501 H           -5.6523    -3.8195     1.0556 H       1      m1     0.0082
   1502 C           -5.4294    -3.3556    -1.4069 C       1      m1    -0.0317
   1503 C           -4.6933    -4.2722    -2.2394 C       1      m1    -0.0038
   1504 H           -4.6510    -5.3326    -1.7928 H       1      m1     0.0210
   1505 C           -3.2736    -5.2120     1.2891 C       1      m1     0.0004
   1506 C           -2.9170    -6.0494     0.1618 C       1      m1    -0.0335
   1507 C           -2.8130    -4.0280     1.8263 C       1      m1    -0.0210
   1508 H           -2.4501    -5.5579    -1.8056 H       1      m1    -0.0271
   1509 C           -1.6765    -3.0837     1.2800 C       1      m1    -0.0129
   1510 C           -1.4886    -6.0480    -2.3342 C       1      m1     0.3167
   1511 C           -1.4918    -6.4295     0.5048 C       1      m1     0.0309
   1512 C           -1.0389    -2.1156    -2.4896 C       1      m1    -0.0067
   1513 H           -2.2960    -2.9294     0.2291 H       1      m1     0.0152
   1514 C           -0.9220    -1.8781     2.1345 C       1      m1    -0.0051
   1515 H           -0.7890    -5.6850     0.4212 H       1      m1     0.0611
   1516 O           -0.3531    -6.2968    -1.8375 O       1      m1    -0.4912
   1517 C            1.0993    -3.1323    -2.3725 C       1      m1     0.0260
   1518 C            1.3269    -5.5867     2.2094 C       1      m1    -0.0785
   1519 H            1.8821    -5.3849     1.3729 H       1      m1     0.0481
   1520 H            2.6409    -5.5892    -2.1694 H       1      m1     0.0518
   1521 O            3.9343    -3.2064    -1.0423 O       1      m1    -0.4767
   1522 H            6.7729    -1.6081    -0.4289 H       1      m1     0.0234
   1523 H            7.9345    -6.4380     0.4153 H       1      m1     0.0217
   1524 H            8.0014    -5.2324     2.0536 H       1      m1     0.0366
   1525 H           12.6997    -5.7165    -1.6085 H       1      m1     0.0324
   1526 H           13.3845    -4.1211     0.5985 H       1      m1     0.0733
   1527 C           13.7944    -5.1973     2.0690 C       1      m1     0.3196
   1528 C           14.3673    -4.3527     1.0883 C       1      m1    -0.0817
   1529 H           15.1814    -6.2331    -1.1645 H       1      m1     0.0303
   1530 C           15.7534    -4.8033     0.5677 C       1      m1     0.0200
   1531 C           15.9437    -5.8376    -0.4274 C       1      m1    -0.0018
   1532 O           15.7947    -2.5154    -1.8318 O       1      m1    -0.4758
   1533 H           16.4043    -4.6371     1.3711 H       1      m1     0.0203
   1534 C           17.1406    -6.7419    -0.0765 C       1      m1    -0.0045
   1535 H           16.9166    -2.8988     1.0532 H       1      m1     0.0411
   1536 C          -17.4361     1.6163     0.5619 C       1      m1    -0.0212
   1537 H          -16.6544     0.8896     0.3867 H       1      m1     0.0153
   1538 H          -14.8978    -0.7604    -1.1445 H       1      m1     0.0089
   1539 C          -14.1428    -1.5913    -1.6834 C       1      m1    -0.0370
   1540 H          -11.7717     1.0006    -1.3994 H       1      m1     0.0105
   1541 C          -11.2126     0.5970    -2.3048 C       1      m1    -0.0565
   1542 H          -10.2904     1.6192     0.4412 H       1      m1     0.0140
   1543 H          -10.2771    -1.8464    -1.6244 H       1      m1     0.0182
   1544 C           -9.6455    -1.1444     1.7858 C       1      m1    -0.0110
   1545 C           -9.2444     1.1479     2.2649 C       1      m1    -0.0014
   1546 H           -9.3726    -0.3928    -0.1792 H       1      m1     0.0095
   1547 C           -8.9457    -1.0300     0.6321 C       1      m1     0.0033
   1548 H           -9.0653     1.1043     1.3075 H       1      m1     0.0294
   1549 C           -7.8344    -1.8242    -0.1222 C       1      m1     0.0059
   1550 H           -7.9573    -1.0506    -0.9628 H       1      m1     0.0666
   1551 C           -6.5155    -2.3913     0.4888 C       1      m1    -0.0239
   1552 H           -6.1780     2.0066    -0.6058 H       1      m1     0.0575
   1553 C           -5.5742    -1.3814     0.0951 C       1      m1     0.2576
   1554 O           -5.7306    -0.8950    -1.2873 O       1      m1    -0.4952
   1555 C           -5.1696    -2.2071    -2.1312 C       1      m1     0.2247
   1556 H           -5.0253     1.2289     1.5496 H       1      m1     0.0139
   1557 C           -5.1582     0.1373     2.4140 C       1      m1     0.2832
   1558 H           -4.7231    -1.2773     0.6348 H       1      m1    -0.0175
   1559 H           -2.0068     1.3136    -0.8421 H       1      m1     0.0616
   1560 H           -1.5274     0.5300     1.3352 H       1      m1     0.2580
   1561 O           -1.4274     1.5050     1.4417 O       1      m1    -0.6176
   1562 C           -1.4853     0.5101    -1.5761 C       1      m1    -0.0235
   1563 C           -0.9000    -0.9197    -1.5177 C       1      m1    -0.0011
   1564 C           -0.4553     1.3687    -2.0197 C       1      m1    -0.0033
   1565 H            1.1679    -1.4904     1.2736 H       1      m1     0.0296
   1566 C            0.2277    -1.2136     1.9712 C       1      m1    -0.0345
   1567 C            0.5971    -0.7930    -1.7096 C       1      m1     0.0011
   1568 C            0.6979     0.7104    -1.9980 C       1      m1    -0.0117
   1569 C            1.6736    -1.8159    -1.8412 C       1      m1    -0.0109
   1570 H            3.0075     1.8905    -0.9290 H       1      m1     0.0256
   1571 C            2.7365    -1.9990    -1.0297 C       1      m1     0.0859
   1572 C            3.5383     1.7458    -1.9764 C       1      m1    -0.0194
   1573 C            4.1159    -1.9726    -0.5589 C       1      m1     0.2240
   1574 H            4.3146    -0.4653     1.8218 H       1      m1     0.0312
   1575 C            4.0941     0.5658    -2.1727 C       1      m1    -0.0151
   1576 H            4.1950    -1.4496     0.5918 H       1      m1    -0.0229
   1577 H            5.6185     2.3042     2.2489 H       1      m1     0.0115
   1578 C            6.2691     1.6136     1.5475 C       1      m1    -0.0246
   1579 C            6.3704     0.3043     1.5747 C       1      m1    -0.0048
   1580 H            6.4056     1.2531    -0.7005 H       1      m1     0.0173
   1581 C            7.0412     2.0463    -0.4557 C       1      m1    -0.0229
   1582 H            7.9343    -0.7429    -1.2899 H       1      m1     0.0122
   1583 C            7.5990    -0.1644     0.8859 C       1      m1    -0.0019
   1584 C            7.7763    -1.2181    -0.1153 C       1      m1    -0.0263
   1585 C            9.1375     0.2786     1.4452 C       1      m1    -0.0118
   1586 C            9.3900    -1.4349    -0.7937 C       1      m1    -0.0113
   1587 H           10.0435     0.8600     1.9606 H       1      m1     0.0347
   1588 H            9.4599    -0.7339    -1.5808 H       1      m1     0.0291
   1589 H            9.6213    -0.7902     1.0998 H       1      m1     0.0384
   1590 C           10.7377    -1.9898    -0.8715 C       1      m1     0.0241
   1591 O           11.3244     1.3517     0.1126 O       3      m3    -0.5825
   1592 C           12.0224    -1.6065    -1.7380 C       1      m1     0.0113
   1593 H           11.6703     1.6252     0.9304 H       3      m3     0.2849
   1594 C           13.2249    -1.4121    -2.2575 C       1      m1     0.0458
   1595 H           14.1064    -1.2930     0.5832 H       1      m1     0.0470
   1596 C           13.8757    -0.6661     1.6271 C       1      m1    -0.0124
   1597 C           15.0482     0.2501     1.5055 C       1      m1     0.0111
   1598 H           15.1451    -0.0575    -0.8016 H       1      m1     0.0412
   1599 C           15.7302     0.3925     0.1576 C       1      m1    -0.0105
   1600 C           16.5176     1.6278    -0.0780 C       1      m1     0.0017
   1601 C           17.2820    -0.7219    -2.7005 C       1      m1    -0.1373
   1602 C          -17.5670     4.5399    -1.0446 C       1      m1    -0.0015
   1603 C          -17.1375     2.1463     1.7354 C       1      m1    -0.0069
   1604 H          -15.5144     5.6606    -0.0296 H       1      m1     0.0153
   1605 C          -16.4924     5.3523    -0.7315 C       1      m1    -0.0245
   1606 C          -15.9708     5.7603    -2.0770 C       1      m1    -0.0060
   1607 H          -15.9634     4.0041     0.6274 H       1      m1     0.0210
   1608 C          -15.0187     3.9036    -0.0597 C       1      m1    -0.0385
   1609 H          -14.7645     4.4912    -0.9289 H       1      m1     0.0192
   1610 C          -14.1089     3.3466     0.6840 C       1      m1    -0.0111
   1611 C          -14.1620     3.1003     2.2372 C       1      m1    -0.0056
   1612 H          -13.2772     3.4012    -0.0236 H       1      m1     0.0159
   1613 H          -11.3565     5.3388     0.2759 H       1      m1     0.0208
   1614 C          -11.8759     3.6895     1.8295 C       1      m1    -0.0107
   1615 H          -12.1197     3.3155    -2.0123 H       1      m1     0.0122
   1616 C          -11.3602     6.3588     0.6021 C       1      m1    -0.0345
   1617 C          -10.2114     2.7742     0.3519 C       1      m1    -0.0236
   1618 C          -10.4480     3.8554     1.4270 C       1      m1     0.0041
   1619 C           -9.4438     3.4182    -0.5744 C       1      m1    -0.0022
   1620 H           -9.1313     5.4219     1.1309 H       1      m1     0.0219
   1621 C           -9.4013     4.7474     1.9724 C       1      m1    -0.0351
   1622 C           -8.8728     4.1650    -1.2477 C       1      m1    -0.0009
   1623 C           -7.8896     4.2295     2.1917 C       1      m1     0.0004
   1624 C           -8.2210     4.7612    -2.0746 C       1      m1    -0.0253
   1625 C           -7.1951     5.8564    -1.4475 C       1      m1     0.0004
   1626 C           -7.4184     4.2488     0.7915 C       1      m1    -0.0003
   1627 C           -6.8099     5.6581     0.0948 C       1      m1    -0.0010
   1628 H           -6.7554     2.5840    -2.1604 H       1      m1     0.0248
   1629 C           -6.3130     3.6875     0.1299 C       1      m1     0.0068
   1630 C           -5.9863     2.8028    -1.2201 C       1      m1    -0.0523
   1631 H           -5.0523     2.9642    -1.7389 H       1      m1     0.0294
   1632 C           -4.3092     6.0963     1.3031 C       1      m1    -0.0036
   1633 C           -3.8567     4.8516     0.7794 C       1      m1     0.0086
   1634 H           -3.5195     2.9968    -0.2807 H       1      m1     0.0417
   1635 C           -3.3311     4.1600    -0.2608 C       1      m1    -0.0060
   1636 C           -2.6882     4.2961    -1.6366 C       1      m1    -0.0173
   1637 H           -1.4225     5.3840     1.8169 H       1      m1     0.0308
   1638 H           -1.5473     4.0804    -1.8230 H       1      m1     0.0281
   1639 C            1.2958     3.1261     1.6524 C       1      m1     0.0333
   1640 C            2.4080     4.2213     1.9113 C       1      m1    -0.0273
   1641 H            2.8354     4.3343     0.8994 H       1      m1     0.0449
   1642 O            3.1893     6.6620    -1.3806 O       1      m1    -0.4112
   1643 H            3.8345     7.2385     0.5002 H       1      m1     0.0070
   1644 C            6.6866     4.2626     1.2817 C       1      m1    -0.0219
   1645 H            7.1719     5.0857     0.6839 H       1      m1     0.0193
   1646 C            6.9077     2.7423     0.8560 C       1      m1    -0.0001
   1647 C            7.5302     2.6833    -1.4940 C       1      m1    -0.0150
   1648 H            7.9190     3.8497    -1.5716 H       1      m1     0.0211
   1649 C            8.8710     6.0821    -0.8762 C       3      m3    -0.0119
   1650 C            8.9597     5.4247     0.1887 C       3      m3    -0.0016
   1651 C            9.0644     4.6624     1.2898 C       3      m3    -0.0120
   1652 H            9.6982     2.1197    -0.8697 H       3      m3     0.0496
   1653 C            9.9795     3.4651     1.0450 C       3      m3    -0.0198
   1654 H           10.4941     6.5250     0.3962 H       2      m2     0.0101
   1655 C           10.1297     2.6104     0.1697 C       3      m3     0.1431
   1656 O           12.5197     5.5681     0.9216 O       2      m2    -0.4607
   1657 H           13.2066     3.5136    -2.3906 H       1      m1     0.0466
   1658 C           13.2229     6.4290     1.8912 C       2      m2     0.1992
   1659 H           15.1508     4.5914     0.9413 H       1      m1     0.0455
   1660 C           14.8589     2.9297    -1.4107 C       1      m1     0.0185
   1661 C           15.4068     4.2780    -1.5137 C       1      m1     0.0107
   1662 C           15.6415     4.6590    -0.1017 C       1      m1    -0.0139
   1663 C           15.7614     2.6378    -0.4027 C       1      m1     0.0095
   1664 C           16.7361     4.5250    -2.0423 C       1      m1    -0.0110
   1665 H           15.7891     5.8278    -0.1194 H       1      m1     0.0287
   1666 H           17.2478     3.8752     0.8369 H       1      m1     0.0184
   1667 C           16.6205     3.6680    -0.0485 C       1      m1    -0.0188
   1668 H           17.5212     9.6624     1.9970 H       1      m1     0.0165
   1669 H          -16.7324     7.0200     1.8407 H       1      m1     0.0170
   1670 C          -16.9727     9.1973     1.3674 C       1      m1    -0.0138
   1671 C          -16.5781     7.8499     1.0940 C       1      m1    -0.0372
   1672 H          -16.1890     7.5359     0.2482 H       1      m1     0.0250
   1673 C          -16.2631     9.6792     0.0643 C       1      m1     0.0032
   1674 H          -15.4477     9.3441    -2.3716 H       1      m1     0.0206
   1675 C          -15.1374     7.0269    -2.1299 C       1      m1    -0.0116
   1676 C          -14.9145     9.7500    -0.1176 C       1      m1    -0.0186
   1677 C          -14.6119    10.8915    -1.1213 C       1      m1    -0.0028
   1678 H          -14.2371     9.0513     0.4784 H       1      m1     0.0216
   1679 H          -12.8939     6.8442     2.0179 H       1      m1     0.0206
   1680 C          -11.9230     7.0237     1.4011 C       1      m1    -0.0048
   1681 C          -11.0760     8.2744     1.8452 C       1      m1    -0.0003
   1682 C          -10.9506     9.2865    -0.6844 C       1      m1    -0.0230
   1683 H          -11.1751     8.4303    -1.3211 H       1      m1     0.0198
   1684 C          -10.9145    10.4116    -1.0661 C       1      m1     0.0060
   1685 H          -10.4602     6.6896    -0.0189 H       1      m1     0.0190
   1686 C          -10.4327     8.9109     0.7354 C       1      m1     0.0015
   1687 H           -9.3009     8.6024    -1.9257 H       1      m1     0.0236
   1688 C           -9.0154     8.8439     0.8136 C       1      m1    -0.0016
   1689 C           -8.3256     8.8386    -2.3821 C       1      m1    -0.0323
   1690 C           -7.8914     8.7554     0.9316 C       1      m1    -0.0048
   1691 H           -7.3238     8.6973    -1.7426 H       1      m1     0.0230
   1692 C           -6.7923    10.8774    -1.9229 C       1      m1    -0.0017
   1693 C           -6.3764     8.3616     1.1115 C       1      m1    -0.0003
   1694 C           -6.2528     7.1191     0.3247 C       1      m1    -0.0012
   1695 H           -4.6246     9.7621     1.8039 H       1      m1     0.0138
   1696 C           -5.0532     8.7096     1.4234 C       1      m1    -0.0182
   1697 C           -4.7363     7.0122     0.2009 C       1      m1    -0.0037
   1698 C           -4.3119     7.5240    -0.9485 C       1      m1     0.0092
   1699 C           -4.1353     7.1789    -2.0564 C       1      m1    -0.0268
   1700 H           -2.9346     9.7212     1.5070 H       1      m1     0.0174
   1701 C           -3.1203     8.4091    -0.6698 C       1      m1    -0.0533
   1702 H           -3.6274     9.4326    -0.1914 H       1      m1     0.0144
   1703 H           -2.4956     8.8074    -1.5644 H       1      m1     0.0116
   1704 H           -3.2260     6.6171    -2.1996 H       1      m1     0.0183
   1705 C           -2.4483     9.4122     2.3659 C       1      m1    -0.0284
   1706 H           -2.4156    11.0655    -0.9835 H       1      m1     0.0221
   1707 H           -2.2925     7.8365    -0.0921 H       1      m1     0.0209
   1708 H           -0.1067    10.1263     1.2798 H       1      m1     0.0239
   1709 H           -0.4712     8.2127    -1.9089 H       1      m1     0.0148
   1710 H            0.8549     9.7499    -0.6016 H       1      m1     0.0302
   1711 C            0.4517    10.0361     0.2751 C       1      m1    -0.0451
   1712 C            1.2972     7.3828     2.0456 C       1      m1     0.0083
   1713 C            1.7458     9.7510     1.1484 C       1      m1     0.0063
   1714 C            1.8787     8.6927     1.9322 C       1      m1    -0.0301
   1715 C            2.5803    10.7562     1.6383 C       1      m1    -0.0156
   1716 H            3.1796     8.9613    -0.1974 H       1      m1     0.0355
   1717 H            3.3713    10.2831     2.3186 H       1      m1     0.0158
   1718 C            3.9534     9.5619    -0.6658 C       1      m1    -0.0047
   1719 C            4.2657     7.2215    -0.5651 C       1      m1     0.2009
   1720 C            4.5694    10.8387    -0.8176 C       1      m1     0.0020
   1721 C            4.8681     8.5358    -1.0684 C       1      m1    -0.0460
   1722 C            5.5725    10.6228     2.2157 C       1      m1    -0.0174
   1723 H            5.6892     9.6909     1.5554 H       1      m1     0.0155
   1724 H            5.8105     6.5480     2.8104 H       1      m1     0.0109
   1725 H            7.0489     8.7002    -0.6275 H       3      m3     0.0143
   1726 C            8.0084     8.4855    -1.0474 C       3      m3    -0.0247
   1727 H            8.6813     9.9123     2.4703 H       3      m3     0.0209
   1728 C            8.9139     6.6002    -2.0018 C       3      m3     0.0099
   1729 C            9.2380    10.0692     1.5521 C       3      m3    -0.0409
   1730 C            9.3541     8.3786    -0.6733 C       3      m3    -0.0083
   1731 C            9.3626     9.3198     0.3816 C       3      m3     0.0003
   1732 H            9.7320    10.9949     1.2046 H       3      m3     0.0262
   1733 C           10.4488     6.8851    -2.2503 C       3      m3    -0.0120
   1734 C           10.6922     8.0053    -1.5401 C       3      m3     0.0077
   1735 H           12.1133     8.7569     2.1115 H       2      m2     0.0320
   1736 C           11.4289     7.7903     2.3253 C       2      m2    -0.0335
   1737 C           11.4473     6.7560     0.8421 C       2      m2     0.1314
   1738 H           11.9799     7.0326    -0.0613 H       2      m2     0.0550
   1739 O           14.1374    10.2551    -1.7809 O       1      m1    -0.4855
   1740 H           14.5625     6.8499     1.0284 H       2      m2     0.0297
   1741 C           15.4370     7.9305     1.3011 C       2      m2    -0.0325
   1742 H           15.9984     8.7053     0.8767 H       2      m2     0.0416
   1743 C          -16.6529    11.2659     0.0918 C       1      m1    -0.0010
   1744 C          -15.6803    12.4099     0.0694 C       1      m1    -0.0097
   1745 H          -16.5988    13.4163     0.5427 H       1      m1     0.0120
   1746 C          -14.9676    13.5654    -1.9264 C       1      m1    -0.0212
   1747 C          -14.9047    12.2410    -1.3073 C       1      m1     0.0054
   1748 C          -14.7035    11.9005     1.1758 C       1      m1     0.0041
   1749 H          -14.2822    14.3109    -1.7160 H       1      m1     0.0245
   1750 C          -13.4339    12.1910     0.9640 C       1      m1    -0.0179
   1751 C          -13.3036   -15.1833     2.0327 C       1      m1    -0.0011
   1752 H          -12.7253    12.0235     1.7424 H       1      m1     0.0237
   1753 C          -12.4312   -15.2343     0.7695 C       1      m1    -0.0027
   1754 C          -11.0800    15.0051     1.2504 C       1      m1    -0.0019
   1755 C          -10.7599    11.6148    -1.3327 C       1      m1     0.0043
   1756 H          -10.4637    13.7457    -0.3551 H       1      m1     0.0203
   1757 H          -10.3766    13.3500    -2.4663 H       1      m1     0.0183
   1758 C          -10.0850    14.7621     0.4087 C       1      m1    -0.0156
   1759 H           -9.5918    12.1003     0.7326 H       1      m1     0.0200
   1760 C           -9.5537    11.8962    -0.2634 C       1      m1    -0.0259
   1761 C           -8.8718    14.5241     0.3713 C       1      m1    -0.0031
   1762 C           -8.4702    11.4983    -0.5152 C       1      m1     0.0062
   1763 C           -8.4905    14.0843    -2.2531 C       1      m1    -0.0129
   1764 C           -7.9073    13.5281     0.0809 C       1      m1     0.0019
   1765 C           -7.6956    13.3702    -1.5121 C       1      m1    -0.0144
   1766 H           -8.0830    12.3324     1.6697 H       1      m1     0.0167
   1767 H           -6.8037    13.4413    -2.4505 H       1      m1     0.0234
   1768 C           -7.2314    12.9890     1.3724 C       1      m1    -0.0257
   1769 C           -7.2594    10.9953    -0.5182 C       1      m1    -0.0061
   1770 H           -7.2632    13.8959     2.0989 H       1      m1     0.0262
   1771 C           -6.3238    12.1385     0.2122 C       1      m1    -0.0260
   1772 H           -5.5144    11.5061     0.5248 H       1      m1     0.0241
   1773 C           -5.5360    10.9857    -2.5160 C       1      m1    -0.0147
   1774 H           -6.1386    13.0498    -0.4949 H       1      m1     0.0403
   1775 H           -4.7556    11.3034    -1.7634 H       1      m1     0.0232
   1776 O           -2.7596    14.1431     0.4036 O       1      m1    -0.4454
   1777 C           -2.2143    12.1875     2.0376 C       1      m1    -0.0791
   1778 C           -2.2556    12.9719     0.4649 C       1      m1     0.3230
   1779 C           -1.7982    11.9855    -0.5239 C       1      m1    -0.0759
   1780 H           -1.1416    12.2487     2.6101 H       1      m1     0.0282
   1781 C           -0.4214    11.7577    -1.0785 C       1      m1     0.0131
   1782 C            0.0586    12.3939    -2.3783 C       1      m1     0.0056
   1783 C            0.2609    11.5855     0.0493 C       1      m1    -0.0049
   1784 C            1.4654    13.1742    -2.2562 C       1      m1    -0.0216
   1785 C            1.5318    12.2866    -0.0306 C       1      m1     0.0297
   1786 C            2.0579    12.7527    -1.1107 C       1      m1     0.0015
   1787 C            2.2170    12.0307     1.4271 C       1      m1    -0.0481
   1788 O            2.4800    14.6954     1.6858 O       1      m1    -0.5020
   1789 C            2.7473    13.2468     1.9592 C       1      m1     0.2093
   1790 H            2.8230    14.4577    -0.2972 H       1      m1     0.0861
   1791 C            3.2540    13.3207    -0.9631 C       1      m1    -0.0200
   1792 C            3.8966    14.9550     2.1289 C       1      m1     0.2381
   1793 H            4.9871    15.1306    -1.4346 H       1      m1     0.0238
   1794 C            4.6926    12.9681    -0.8760 C       1      m1    -0.0004
   1795 C            4.8122    11.9557     0.0287 C       1      m1    -0.0024
   1796 H            4.8918    12.4560     2.0623 H       1      m1     0.0191
   1797 C            5.5313    11.0262    -1.9773 C       1      m1    -0.0015
   1798 C            5.7427    12.1113     1.3817 C       1      m1    -0.0305
   1799 C            5.7523    12.5060    -2.1261 C       1      m1    -0.0396
   1800 H            6.5261    13.0403     1.3486 H       1      m1     0.0152
   1801 H            6.8398    12.3404    -1.7169 H       1      m1     0.0142
   1802 H            7.1499    14.5623    -1.7170 H       1      m1     0.0203
   1803 H            8.7804    12.0439    -1.4756 H       1      m1     0.0132
   1804 C            9.8274    15.3031    -0.1670 C       1      m1    -0.0120
   1805 C           10.1602    14.1206     0.4228 C       1      m1    -0.0090
   1806 C           10.6961    13.2325     1.1156 C       1      m1    -0.0096
   1807 C           10.8656    15.1037    -1.3393 C       1      m1    -0.0029
   1808 C           11.5617    12.6619     1.8946 C       1      m1    -0.0044
   1809 H           11.9883   -15.2886    -0.8800 H       1      m1     0.0128
   1810 C           12.4789    11.9710     2.5482 C       1      m1    -0.0175
   1811 H           13.5506    13.4222    -2.6304 H       1      m1     0.0455
   1812 H           13.4451    12.0448     0.9906 H       1      m1     0.0514
   1813 C           13.8181    12.4789     1.8239 C       1      m1    -0.0265
   1814 C           14.9918    12.6290     2.3562 C       1      m1     0.0086
   1815 C           15.2152    14.7271    -0.1615 C       1      m1    -0.0154
   1816 C           15.3397    13.5201    -1.0719 C       1      m1     0.0138
   1817 H           16.9276    10.7091    -0.6654 H       1      m1     0.0447
   1818 H           16.9601    13.5448     2.4175 H       1      m1     0.0112
   1819 C           16.5331    12.8982    -0.6127 C       1      m1    -0.0083
   1820 H           16.4875    13.0933     0.5179 H       1      m1     0.0202
   1821 C           17.3689    11.6532    -0.4117 C       1      m1    -0.0190
   1822 H          -17.1772    15.2868     0.5512 H       1      m1     0.0161
   1823 C          -17.5636   -15.0290     3.9725 C       1      m1    -0.0169
   1824 C          -17.3691   -13.9350     3.1846 C       1      m1     0.0004
   1825 C          -16.7755   -14.5152     6.9771 C       1      m1     0.2491
   1826 C          -15.9854   -13.0450     2.9476 C       1      m1     0.0029
   1827 C          -15.5005   -10.9343     5.7950 C       1      m1    -0.0007
   1828 H          -15.0803    15.1770     6.5240 H       1      m1     0.2564
   1829 C          -14.6576   -13.7818     3.1049 C       1      m1     0.0008
   1830 C          -14.5081   -14.8473     4.0192 C       1      m1     0.0024
   1831 C          -14.2049   -11.3442     6.4147 C       1      m1    -0.0508
   1832 H          -13.9346   -12.1654     7.2029 H       1      m1     0.0523
   1833 H          -12.5430   -14.2440     6.5239 H       1      m1     0.0431
   1834 H          -12.3766   -12.6217     4.3050 H       1      m1     0.0330
   1835 C          -11.9629   -14.5500     5.5202 C       1      m1    -0.0100
   1836 C          -11.8981   -13.2988     4.6115 C       1      m1    -0.0115
   1837 C          -10.4903   -13.1647     4.6319 C       1      m1    -0.0123
   1838 H           -9.7721   -13.1642     5.5341 H       1      m1     0.0349
   1839 C          -10.2258   -11.3866     2.3754 C       1      m1    -0.0274
   1840 C          -10.2034   -11.8432     4.0622 C       1      m1     0.0171
   1841 H           -8.0027   -13.5342     3.2736 H       1      m1     0.0384
   1842 C           -8.2669   -14.7372     2.5998 C       1      m1    -0.0386
   1843 H           -6.9828   -10.6753     3.0763 H       1      m1     0.0457
   1844 C           -7.1215   -12.7741     6.7805 C       1      m1     0.3495
   1845 H           -7.8911   -13.7695     6.4205 H       1      m1     0.0250
   1846 O           -6.9024   -12.6164     5.6122 O       1      m1    -0.5562
   1847 H           -6.5317   -13.9139     4.1219 H       1      m1     0.0892
   1848 C           -5.8994   -14.2252     3.1300 C       1      m1    -0.0202
   1849 H           -4.2696   -13.3768     4.6385 H       1      m1     0.0379
   1850 C           -4.6082   -13.8390     3.7084 C       1      m1     0.0002
   1851 C           -3.4527   -14.3166     2.9273 C       1      m1    -0.0292
   1852 H           -3.5671   -15.1217     5.5022 H       1      m1     0.0223
   1853 H           -3.1553   -11.1530     6.6225 H       1      m1     0.0305
   1854 C           -1.9894   -11.1399     4.0632 C       1      m1    -0.0007
   1855 C           -2.1101   -14.1631     2.9487 C       1      m1     0.0018
   1856 H           -1.3743   -11.0922     7.4914 H       1      m1     0.0148
   1857 C           -1.6105    15.3543     6.9170 C       1      m1    -0.0345
   1858 H           -1.7496   -14.2503     6.6648 H       1      m1     0.0179
   1859 C           -0.9411   -13.9444     3.2133 C       1      m1     0.0156
   1860 C           -0.9212   -11.5840     4.4422 C       1      m1    -0.0242
   1861 C           -0.2051   -12.7670     5.1105 C       1      m1    -0.0073
   1862 H           -0.1192   -15.2678     4.9946 H       1      m1     0.0205
   1863 C           -0.0387   -14.1632     4.4938 C       1      m1    -0.0349
   1864 H           -0.3444   -11.4671     3.5694 H       1      m1     0.0223
   1865 H            0.9499   -14.1911     3.8123 H       1      m1     0.0444
   1866 H            4.6736   -13.3789     6.4997 H       1      m1     0.0245
   1867 H            5.4109   -14.8967     7.1587 H       1      m1     0.0213
   1868 C            5.7707   -14.9739     3.3138 C       1      m1     0.0024
   1869 H            6.0587   -13.7456     6.3009 H       1      m1     0.0117
   1870 C            6.2914   -14.9310     6.5551 C       1      m1    -0.0391
   1871 H            7.2880   -11.1872     2.1901 H       1      m1     0.0509
   1872 H            7.7380   -11.8170     4.9714 H       1      m1     0.0619
   1873 C            7.7852   -12.8663     7.0718 C       1      m1     0.0264
   1874 H            7.7358   -14.2074     5.2982 H       1      m1     0.0226
   1875 C            7.5554   -11.7840     6.0687 C       1      m1    -0.0112
   1876 C            7.9012   -14.2658     6.2576 C       1      m1    -0.0024
   1877 O            9.8068   -11.0695     3.9895 O       1      m1    -0.5184
   1878 H            9.8126   -13.6932     3.7318 H       1      m1     0.0508
   1879 C           10.8477   -12.1664     4.3542 C       1      m1     0.2858
   1880 C           10.9003   -13.2853     3.9483 C       1      m1    -0.0787
   1881 H           11.0154   -15.1045     3.6253 H       1      m1     0.0287
   1882 C           11.9914   -15.0406     3.6517 C       1      m1    -0.0191
   1883 C           11.8567   -11.7098     4.8564 C       1      m1    -0.0551
   1884 C           12.0805   -13.6567     3.4093 C       1      m1     0.0039
   1885 H           12.7324   -12.3551     5.0746 H       1      m1     0.0404
   1886 H           13.1792   -13.5962     2.9490 H       1      m1     0.0167
   1887 H           14.6766   -12.3663     5.2427 H       1      m1     0.0359
   1888 H           14.0841   -14.2979     6.5720 H       1      m1     0.3345
   1889 C           14.5325   -12.6615     4.1982 C       1      m1    -0.0067
   1890 C           14.7357   -11.6355     3.3735 C       1      m1    -0.0145
   1891 O           14.7484   -14.6606     6.1582 O       1      m1    -0.6942
   1892 H           14.9849   -14.8884     3.3042 H       1      m1     0.0289
   1893 C           15.3265   -13.7638     3.5729 C       1      m1     0.0209
   1894 C           16.2423   -14.3373     6.5376 C       1      m1     0.2807
   1895 C           17.5041   -15.0644     6.1978 C       1      m1    -0.1153
   1896 C          -17.2002    -8.8721     6.8364 C       1      m1     0.0043
   1897 C          -17.1307    -8.1972     3.9390 C       1      m1    -0.0209
   1898 C          -16.3865    -9.3058     3.7392 C       1      m1    -0.0111
   1899 H          -16.3953   -10.5092     2.8995 H       1      m1     0.0150
   1900 C          -16.1351    -9.9941     7.0171 C       1      m1     0.0059
   1901 C          -15.5329   -10.2866     4.3642 C       1      m1    -0.0031
   1902 C          -15.3047    -6.6444     6.5998 C       1      m1    -0.0628
   1903 C          -14.7025    -9.1032     6.7781 C       1      m1    -0.0555
   1904 C          -14.4059    -7.6880     7.2382 C       1      m1     0.0288
   1905 C          -13.6881   -10.0369     6.6781 C       1      m1     0.2235
   1906 C          -13.1548    -7.4006     6.6119 C       1      m1    -0.0165
   1907 C          -12.6218    -7.1470     2.8379 C       1      m1    -0.0194
   1908 O          -12.2033    -9.7531     7.0871 O       1      m1    -0.4725
   1909 H          -12.2087    -8.0819     3.2498 H       1      m1     0.0255
   1910 H           -9.8639    -9.7003     3.8873 H       1      m1     0.0232
   1911 C           -9.9279   -10.5306     4.5215 C       1      m1     0.0078
   1912 H           -9.2955    -7.9381     4.6768 H       1      m1     0.0246
   1913 C           -9.2014   -10.8282     6.0262 C       1      m1     0.0509
   1914 C           -8.3726   -10.3938     6.8498 C       1      m1     0.0123
   1915 C           -8.4410    -7.1260     4.7429 C       1      m1    -0.0204
   1916 H           -8.3644    -6.5187     7.2738 H       1      m1     0.0152
   1917 C           -7.7311   -10.6425     2.3663 C       1      m1    -0.0207
   1918 C           -7.2048    -9.9087     7.5144 C       1      m1    -0.0166
   1919 H           -7.3810    -8.8392     7.3520 H       1      m1     0.0247
   1920 C           -3.7456    -6.7653     6.1033 C       1      m1     0.0036
   1921 H           -3.8636    -9.8341     3.5276 H       1      m1     0.0262
   1922 C           -3.1964   -10.5501     3.5381 C       1      m1    -0.0264
   1923 C           -3.3662    -7.7266     6.9337 C       1      m1     0.0020
   1924 C           -2.2361    -8.6629     2.9790 C       1      m1    -0.0720
   1925 C           -1.8206    -8.6694     4.2330 C       1      m1     0.0615
   1926 C           -1.2758    -7.4725     2.6631 C       1      m1     0.1647
   1927 H           -0.4747    -9.5274     6.5034 H       1      m1     0.0260
   1928 O            0.0974    -6.9160     3.8232 O       1      m1    -0.4473
   1929 C            0.6302    -9.7137     6.5918 C       1      m1    -0.0125
   1930 C            1.9262    -9.4499     5.8393 C       1      m1     0.0157
   1931 H            2.4979   -10.0062     2.4097 H       1      m1     0.0161
   1932 C            2.4668   -10.1712     4.6641 C       1      m1     0.0115
   1933 H            2.3523    -8.8514     6.8131 H       1      m1     0.0879
   1934 C            3.0861    -9.7506     3.4421 C       1      m1    -0.0166
   1935 C            4.0260   -10.1708     4.4857 C       1      m1     0.0050
   1936 H            4.8112   -10.8547     4.4119 H       1      m1     0.0112
   1937 O            4.8664    -7.0021     5.3318 O       1      m1    -0.4279
   1938 H            6.1563    -9.4326     4.8688 H       1      m1     0.0419
   1939 C            6.8227    -9.4639     5.7634 C       1      m1     0.0052
   1940 C            6.8423   -10.6737     6.5446 C       1      m1     0.0005
   1941 H            7.9414    -9.1603     5.4089 H       1      m1     0.0340
   1942 C            7.3775    -6.6533     2.9811 C       1      m1    -0.0009
   1943 C           10.4427    -8.6606     4.3595 C       1      m1    -0.0200
   1944 C           10.4331   -10.1001     4.8653 C       1      m1     0.2492
   1945 C           11.1441    -7.9789     3.2600 C       1      m1    -0.0291
   1946 H           11.4618    -6.9167     3.1346 H       1      m1     0.0874
   1947 C           11.6548   -10.4590     5.3936 C       1      m1    -0.0566
   1948 H           11.2381    -8.5946     2.2551 H       1      m1     0.0362
   1949 H           12.3451    -9.9216     5.9689 H       1      m1     0.0202
   1950 H           13.7005    -7.0755     4.1226 H       1      m1     0.0391
   1951 C           14.5700    -7.5445     4.2533 C       1      m1    -0.0221
   1952 C           14.6652    -6.9938     5.8015 C       1      m1     0.0056
   1953 C           15.4906    -7.5680     2.9801 C       1      m1    -0.0123
   1954 H           16.2184    -9.1357     5.7941 H       1      m1     0.0181
   1955 C           16.6458    -8.6187     6.5851 C       1      m1    -0.0188
   1956 C           16.9162    -7.7810     3.2167 C       1      m1     0.0078
   1957 H          -17.1007    -7.4918     4.9002 H       1      m1     0.0452
   1958 O          -17.3033    -4.9337     5.5604 O       1      m1    -0.4706
   1959 C          -15.9998    -4.4129     4.7234 C       1      m1     0.1747
   1960 C          -16.1858    -5.6303     6.1305 C       1      m1     0.2314
   1961 C          -15.4917    -3.6987     3.7698 C       1      m1    -0.0418
   1962 C          -14.3654    -3.4132     3.2265 C       1      m1     0.0100
   1963 C          -13.1043    -5.8800     3.0244 C       1      m1     0.0011
   1964 O          -13.2224    -2.4089     7.4249 O       1      m1    -0.5139
   1965 C          -13.1704    -4.2530     3.4608 C       1      m1    -0.0075
   1966 C          -13.0377    -6.0664     6.4286 C       1      m1    -0.0066
   1967 C          -12.9937    -4.9165     5.8693 C       1      m1     0.0256
   1968 C          -13.0378    -4.0506     5.0678 C       1      m1    -0.0160
   1969 H          -12.6174    -3.1828     5.3303 H       1      m1     0.0627
   1970 C          -11.8462    -3.6952     2.7087 C       1      m1    -0.0074
   1971 H          -11.3678    -5.3385     3.7385 H       1      m1     0.0225
   1972 C          -11.0656    -5.0277     2.7734 C       1      m1    -0.0223
   1973 C           -9.7700    -4.7131     2.7347 C       1      m1    -0.0103
   1974 C           -8.4861    -4.2757     2.9272 C       1      m1     0.0132
   1975 C           -7.9989    -6.0051     4.2548 C       1      m1    -0.0064
   1976 C           -8.1652    -2.6294     6.4035 C       1      m1    -0.0305
   1977 H           -8.0990    -3.6576     4.8807 H       1      m1     0.0256
   1978 C           -7.5578    -3.7970     4.0609 C       1      m1    -0.0351
   1979 H           -6.6404    -3.1604     4.1138 H       1      m1     0.0422
   1980 C           -6.6601    -5.2451     4.1379 C       1      m1    -0.0163
   1981 H           -6.4968    -6.0933     3.2618 H       1      m1     0.0154
   1982 H           -6.0925    -2.9395     5.4253 H       1      m1     0.0198
   1983 C           -5.5123    -4.9282     5.0784 C       1      m1    -0.0028
   1984 C           -5.5480    -3.8268     6.2879 C       1      m1    -0.0073
   1985 C           -4.3595    -6.0445     5.1692 C       1      m1     0.0069
   1986 C           -4.5596    -5.7596     3.6773 C       1      m1    -0.0014
   1987 C           -4.1723    -3.0955     6.3821 C       1      m1     0.0007
   1988 C           -4.0461    -5.6830     2.4097 C       1      m1    -0.0130
   1989 C           -3.6504    -2.1697     5.6841 C       1      m1    -0.0007
   1990 H           -3.1632    -3.6193     2.7756 H       1      m1     0.0262
   1991 C            1.1279    -5.8811     3.4228 C       1      m1     0.2534
   1992 H            1.5637    -5.2282     7.0791 H       1      m1     0.0437
   1993 C            2.1756    -4.7723     3.9829 C       1      m1    -0.0416
   1994 C            2.2944    -2.3130     4.9373 C       1      m1     0.0015
   1995 C            2.6346    -3.4054     3.8762 C       1      m1     0.0141
   1996 C            3.2797    -5.5264     4.5201 C       1      m1    -0.0027
   1997 C            3.2938    -2.7328     2.8373 C       1      m1     0.0068
   1998 C            4.2451    -6.5382     4.2314 C       1      m1     0.2574
   1999 H            4.8777    -6.2340     3.3937 H       1      m1    -0.0243
   2000 C            4.9074    -2.6377     2.7385 C       1      m1     0.0013
   2001 H            6.1929    -5.4972     3.9317 H       1      m1     0.0691
   2002 H            6.4959    -2.5867     4.3795 H       1      m1     0.0844
   2003 C            6.8571    -4.5058     6.9560 C       1      m1     0.2387
   2004 C            6.9525    -5.3286     2.6829 C       1      m1    -0.0147
   2005 O            7.3925    -4.1704     5.5645 O       1      m1    -0.5054
   2006 C            7.9201    -5.5696     5.5234 C       1      m1     0.2223
   2007 C            8.1336    -6.1375     6.7954 C       1      m1    -0.0269
   2008 H            8.1781    -5.8288     4.3508 H       1      m1     0.0197
   2009 O           12.5901    -5.1893     2.4125 O       1      m1    -0.5019
   2010 H           13.5014    -5.9025     6.8938 H       1      m1     0.0148
   2011 H           13.7734    -3.3746     5.2769 H       1      m1     0.0270
   2012 C           14.1586    -5.7006     5.7929 C       1      m1     0.0106
   2013 C           14.5279    -4.2663     5.2551 C       1      m1     0.0039
   2014 H           14.8068    -5.6951     2.8317 H       1      m1    -0.0090
   2015 C           15.5409    -3.3999     5.1468 C       1      m1     0.0473
   2016 C           16.1707    -2.2867     4.8938 C       1      m1     0.0154
   2017 H          -17.2047    -0.9653     4.6334 H       1      m1     0.0233
   2018 H          -15.1995    -0.5926     4.7756 H       1      m1     0.0254
   2019 C          -14.5339    -1.1484     4.0833 C       1      m1    -0.0094
   2020 H          -13.7088    -0.1638     6.6320 H       1      m1     0.0683
   2021 C          -13.6799    -1.9829     3.6148 C       1      m1    -0.0115
   2022 C          -12.9931     0.6064     6.5815 C       1      m1    -0.0176
   2023 H          -12.4925    -1.7343     3.7237 H       1      m1     0.0193
   2024 H          -12.8107    -0.0763     3.8160 H       1      m1     0.0152
   2025 C          -12.1943     1.2985     5.6113 C       1      m1     0.0018
   2026 C          -12.1493     0.0949     4.7029 C       1      m1    -0.0067
   2027 C          -11.0716     0.0025     3.6558 C       1      m1    -0.0084
   2028 C          -10.2568     0.1699     2.4659 C       1      m1    -0.0071
   2029 H           -9.9910     1.3895     4.7787 H       1      m1     0.0275
   2030 C           -9.4258    -1.9261     7.0300 C       1      m1     0.0263
   2031 C           -8.9451     1.8586     4.9607 C       1      m1    -0.0256
   2032 C           -8.7495     2.0323     3.2849 C       1      m1     0.0198
   2033 H           -8.5904     1.2024     6.9221 H       1      m1     0.0187
   2034 H           -7.7244    -2.0120     5.5987 H       1      m1     0.0341
   2035 C           -8.0518     1.3242     5.9116 C       1      m1    -0.0089
   2036 C           -6.7634     1.1881     5.8187 C       1      m1     0.0149
   2037 O           -6.2793    -0.4760     2.6582 O       1      m1    -0.4695
   2038 C           -5.6589     1.6727     5.2748 C       1      m1    -0.0020
   2039 C           -4.9892     2.0390     4.1519 C       1      m1     0.0181
   2040 C           -4.2511     1.3077     3.1246 C       1      m1    -0.0279
   2041 C           -3.1179     0.6817     3.8411 C       1      m1     0.0135
   2042 C           -2.7356    -1.2386     5.6924 C       1      m1    -0.0025
   2043 C           -1.9657     0.0424     4.0894 C       1      m1     0.0162
   2044 C           -1.8189    -0.3883     5.4779 C       1      m1    -0.0101
   2045 C           -0.5113     0.7505     3.8240 C       1      m1    -0.1171
   2046 C           -0.5799     1.5505     2.6632 C       1      m1     0.2564
   2047 C           -0.4904    -0.4153     6.1892 C       1      m1     0.0160
   2048 H            0.4515    -0.3913     2.8485 H       1      m1     0.0533
   2049 C            0.7613     2.2746     2.7244 C       1      m1     0.0819
   2050 C            0.5792     0.7075     4.5615 C       1      m1     0.1856
   2051 C            0.7399     0.1053     5.7263 C       1      m1    -0.0757
   2052 H            1.8619     0.4165     5.6632 H       1      m1     0.0676
   2053 O            1.9669     1.1599     3.6761 O       1      m1    -0.4403
   2054 C            2.7927    -1.5569     5.6734 C       1      m1     0.0149
   2055 C            3.3811    -1.6910     6.9412 C       1      m1    -0.0177
   2056 H            3.8694     1.7883     2.3376 H       1      m1     0.0386
   2057 H            4.1543     1.8451     6.7143 H       1      m1     0.0233
   2058 H            3.8594    -2.4233     7.5095 H       1      m1     0.0348
   2059 C            4.6559     1.8338     4.3424 C       1      m1     0.0005
   2060 H            5.4991     0.8446     2.8830 H       1      m1     0.0249
   2061 C            4.8822     1.5403     5.7220 C       1      m1    -0.0059
   2062 C            5.1069    -0.0959     2.4354 C       1      m1    -0.0279
   2063 C            5.4550    -1.3317     3.1865 C       1      m1     0.0021
   2064 C            5.4494     0.2861     6.1308 C       1      m1     0.0028
   2065 C            6.7531    -1.4585     4.2314 C       1      m1    -0.0139
   2066 C            6.5914    -0.0919     5.2039 C       1      m1    -0.0077
   2067 H            7.1207    -0.9330     6.0466 H       1      m1     0.0339
   2068 C            7.8717     0.9230     5.1719 C       1      m1    -0.0238
   2069 H            7.9504     1.5247     6.0438 H       1      m1     0.0184
   2070 C            8.1855    -1.1442     3.4722 C       1      m1     0.0009
   2071 C            8.6908     0.0582     2.8933 C       1      m1    -0.0139
   2072 C            8.6913     1.1005     4.1073 C       1      m1     0.0059
   2073 H            8.3050    -2.1590     2.8638 H       1      m1     0.0363
   2074 H           10.1852     2.4305     3.2035 H       1      m1     0.0240
   2075 H           10.9758     0.6313     6.7999 H       1      m1     0.0183
   2076 C           10.8780     0.7703     5.6260 C       1      m1    -0.0224
   2077 C           11.7269     0.3342     4.4790 C       1      m1     0.0085
   2078 H           12.0574    -0.9591     1.6529 H       1      m1     0.0443
   2079 C           12.8191    -0.4745     2.4652 C       1      m1    -0.0021
   2080 H           12.5299    -0.7828     7.1271 H       1      m1     0.0469
   2081 C           12.9596    -0.1992     3.9710 C       1      m1    -0.0291
   2082 C           13.3064    -0.1246     7.0997 C       1      m1    -0.1503
   2083 H           13.6984     0.2410     4.2741 H       1      m1     0.0404
   2084 C           13.7778     0.6193     6.5834 C       1      m1     0.2321
   2085 O           15.0587     1.6712     6.3281 O       1      m1    -0.5266
   2086 H           14.8588    -0.9229     3.2573 H       1      m1     0.0261
   2087 C           15.8477    -0.7451     3.3931 C       1      m1    -0.0227
   2088 C           16.5664     0.4844     3.5147 C       1      m1     0.0005
   2089 C           16.8809    -1.2330     4.5218 C       1      m1    -0.0083
   2090 H           17.4382     0.7280     4.2739 H       1      m1     0.0246
   2091 H          -16.5871     4.0838     5.6408 H       1      m1     0.0300
   2092 C          -16.5358     2.6781     2.8316 C       1      m1    -0.0248
   2093 H          -16.0303     6.1985     6.9425 H       1      m1     0.0333
   2094 C          -15.5529     3.6330     5.7427 C       1      m1    -0.0118
   2095 C          -15.1776     3.3697     3.1543 C       1      m1    -0.0052
   2096 C          -14.9898     4.2882     6.9593 C       1      m1    -0.0167
   2097 C          -14.6912     3.6701     4.5557 C       1      m1    -0.0020
   2098 H          -13.9215     3.9406     7.1476 H       1      m1     0.0177
   2099 C          -13.2690     4.1313     4.1562 C       1      m1    -0.0039
   2100 C          -13.0054     4.0220     2.7136 C       1      m1     0.0011
   2101 C          -12.2696     4.0463     5.2499 C       1      m1    -0.0018
   2102 C          -12.0782     2.7314     5.8788 C       1      m1    -0.0132
   2103 H          -10.5989     4.8291     6.7574 H       1      m1     0.0171
   2104 C          -11.2484     4.9709     5.7646 C       1      m1    -0.0183
   2105 C          -10.4777     6.1725     5.3281 C       1      m1    -0.0133
   2106 H           -9.9876     6.5076     4.1765 H       1      m1     0.0177
   2107 H           -9.6755     5.4080     2.8241 H       1      m1     0.0205
   2108 H           -8.7908     2.9437     5.2002 H       1      m1     0.0233
   2109 C           -8.0334     3.2809     3.1176 C       1      m1     0.0035
   2110 C           -7.6571     4.4317     5.6727 C       1      m1    -0.0092
   2111 C           -7.6392     4.1224     4.4901 C       1      m1    -0.0088
   2112 C           -7.1929     5.4662     6.6192 C       1      m1     0.0050
   2113 C           -6.8451     6.6483     6.6693 C       1      m1    -0.0237
   2114 H           -5.5284     5.6312     3.7339 H       1      m1     0.0250
   2115 C           -4.5715     6.6227     2.6873 C       1      m1    -0.0001
   2116 C           -4.6363     5.9993     4.0647 C       1      m1    -0.0367
   2117 C           -4.1727     3.3547     3.9936 C       1      m1    -0.0060
   2118 C           -4.0608     4.5839     4.6646 C       1      m1    -0.0037
   2119 H           -3.8655     2.2722     6.7291 H       1      m1     0.0177
   2120 H           -3.3315     3.0171     4.7102 H       1      m1     0.0214
   2121 C           -2.6417     4.7755     5.0975 C       1      m1    -0.0095
   2122 C           -1.9764     4.7912     4.0717 C       1      m1     0.0052
   2123 C           -1.1127     5.0533     2.8845 C       1      m1    -0.0047
   2124 C           -0.2712     6.4863     4.6331 C       1      m1    -0.0060
   2125 C            0.0816     5.5048     3.5088 C       1      m1     0.0018
   2126 C            0.8703     6.4312     2.5812 C       1      m1    -0.0118
   2127 H            1.9778     3.6815     6.1456 H       1      m1     0.0297
   2128 H            1.9916     5.1228     2.3669 H       1      m1     0.0298
   2129 C            2.4055     5.8931     6.2420 C       1      m1     0.0082
   2130 C            2.4175     4.6909     5.8690 C       1      m1    -0.0391
   2131 H            2.8772     4.7772     4.7163 H       1      m1     0.0227
   2132 C            3.7919     2.4044     3.4152 C       1      m1     0.0671
   2133 C            3.7515     3.6771     2.4155 C       1      m1    -0.0101
   2134 H            4.5279     5.6227     2.2339 H       1      m1     0.0188
   2135 C            4.6585     4.7023     2.8728 C       1      m1    -0.0250
   2136 C            6.2369     4.5515     2.6550 C       1      m1    -0.0015
   2137 C            7.0104     6.2498     3.1568 C       1      m1    -0.0149
   2138 C            7.4541     4.6312     3.4889 C       1      m1    -0.0076
   2139 H            7.5102     5.3435     5.8854 H       1      m1     0.0173
   2140 C            7.9603     5.2644     4.8877 C       1      m1    -0.0126
   2141 C            9.2851     3.9871     6.5736 C       1      m1    -0.0234
   2142 H            9.1118     3.6637     4.2806 H       1      m1     0.0241
   2143 C            9.4223     5.0599     5.5950 C       1      m1    -0.0256
   2144 H            9.3399     5.0038     2.2811 H       3      m3     0.0275
   2145 C            9.5217     2.5587     4.1836 C       1      m1    -0.0353
   2146 H           10.3780     4.5825     5.2830 H       1      m1     0.0236
   2147 C           10.2321     2.7921     6.4765 C       1      m1    -0.0084
   2148 C           10.4959     2.0886     5.2290 C       1      m1     0.0099
   2149 H           11.9018     5.5678     3.5939 H       2      m2     0.0357
   2150 C           12.9622     5.3204     3.8980 C       2      m2    -0.0118
   2151 H           13.7323     6.4047     5.8383 H       2      m2     0.0121
   2152 C           13.9248     5.5463     5.0021 C       2      m2    -0.0161
   2153 H           14.4019     3.8235     6.2397 H       2      m2     0.0834
   2154 C           13.9998     5.2612     2.9633 C       2      m2     0.0134
   2155 H           14.8790     4.1740     4.5992 H       2      m2     0.0498
   2156 C           14.7350     4.6725     5.6731 C       2      m2    -0.0320
   2157 C           15.3983     5.3748     3.5951 C       2      m2    -0.0215
   2158 C           15.9757     5.0424     5.7977 C       2      m2    -0.0124
   2159 C           16.2301     5.3614     4.4589 C       2      m2    -0.0001
   2160 H           16.4111     4.8689     6.6823 H       2      m2     0.0482
   2161 H          -16.8334     3.5948     2.6927 H       1      m1     0.0213
   2162 C          -17.2219     7.8609     6.2856 C       1      m1     0.0223
   2163 C          -16.3459     7.8525     5.3510 C       1      m1    -0.0252
   2164 H          -14.8357    10.4260     6.9035 H       1      m1     0.0133
   2165 C          -15.1307     7.7185     5.5236 C       1      m1     0.0030
   2166 C          -13.9878     7.7633     5.2285 C       1      m1    -0.0198
   2167 C          -13.4724    10.8550     4.0247 C       1      m1     0.0011
   2168 H          -13.3527     7.2514     6.0238 H       1      m1     0.0197
   2169 C          -12.9018     8.8315     4.5773 C       1      m1     0.0023
   2170 C          -12.4036    10.2286     4.8035 C       1      m1    -0.0188
   2171 C          -11.6889     8.2606     4.2990 C       1      m1    -0.0037
   2172 H          -11.3190    10.4276     4.3973 H       1      m1     0.0207
   2173 C          -10.8008     7.6452     5.3464 C       1      m1    -0.0076
   2174 C          -10.7121     8.8643     3.0794 C       1      m1    -0.0059
   2175 C           -9.5253     9.4496     2.9847 C       1      m1     0.0042
   2176 C           -8.4309    10.1074     2.6426 C       1      m1    -0.0223
   2177 C           -7.4779     8.0898     4.0015 C       1      m1    -0.0208
   2178 H           -8.3004     9.7006     6.6175 H       1      m1     0.0212
   2179 H           -7.3709     6.9889     3.6428 H       1      m1     0.0164
   2180 H           -7.2539     9.9775     2.5027 H       1      m1     0.0207
   2181 C           -7.1678     9.9197     6.8242 C       1      m1    -0.0104
   2182 H           -6.9248     7.2316     5.7497 H       1      m1     0.0215
   2183 C           -6.9150     9.0068     4.8201 C       1      m1    -0.0040
   2184 C           -6.2274     9.8209     5.5999 C       1      m1    -0.0021
   2185 C           -4.8686     9.6327     6.0233 C       1      m1    -0.0096
   2186 C           -4.5806     8.0991     2.5470 C       1      m1     0.0003
   2187 H           -4.7053     6.8138     4.8002 H       1      m1     0.0221
   2188 C           -3.6287     9.4237     6.2582 C       1      m1    -0.0059
   2189 C           -3.1582     8.4333     2.9771 C       1      m1    -0.0169
   2190 H           -2.6662     8.6851     3.9503 H       1      m1     0.0198
   2191 C           -2.1183    10.8189     2.7690 C       1      m1     0.0010
   2192 H           -1.7073     7.7606     5.2464 H       1      m1     0.0206
   2193 C           -0.9416    10.5284     3.2473 C       1      m1    -0.0083
   2194 C           -0.6837     7.1645     5.4188 C       1      m1     0.0019
   2195 C            0.1677     9.9133     3.3475 C       1      m1    -0.0450
   2196 H           -0.0212     8.9905     2.7360 H       1      m1     0.0227
   2197 H            1.0556    10.1829     3.7002 H       1      m1     0.0230
   2198 H            2.5994     6.6768     4.5510 H       1      m1     0.0202
   2199 H            2.6137     8.7488     2.6914 H       1      m1     0.0174
   2200 C            2.7458     8.6327     7.0136 C       1      m1    -0.0077
   2201 C            2.5720     8.3852     5.6276 C       1      m1     0.0138
   2202 C            3.1455     6.9557     5.4422 C       1      m1    -0.0403
   2203 H            2.4172    10.1984     4.5965 H       1      m1     0.0193
   2204 C            3.1279     9.3923     4.7644 C       1      m1    -0.0254
   2205 H            3.3727    10.7193     6.5605 H       1      m1     0.0268
   2206 H            4.3297     6.7266     5.4626 H       1      m1     0.0169
   2207 C            4.5549     9.0560     4.3787 C       1      m1    -0.0126
   2208 C            5.0970    10.0655     3.4126 C       1      m1    -0.0058
   2209 H            5.5179     9.2845     5.7918 H       1      m1     0.0245
   2210 C            6.1110    10.1342     5.6534 C       1      m1    -0.0360
   2211 H            7.0929     9.7971     5.2838 H       1      m1     0.0184
   2212 H            7.2060     7.4049     5.0505 H       1      m1     0.0156
   2213 C            7.5560     6.6389     4.4865 C       1      m1    -0.0227
   2214 H            9.7243     7.5774     5.4843 H       2      m2     0.0192
   2215 C           10.5636     8.2053     5.1083 C       2      m2    -0.0178
   2216 C           11.0016     7.7462     3.6935 C       2      m2     0.0053
   2217 C           11.6463     8.5346     5.6524 C       2      m2    -0.0213
   2218 H           12.4729     8.7280     6.3821 H       2      m2     0.0165
   2219 C           12.9185     7.4968     3.0049 C       2      m2    -0.0515
   2220 H           13.5703     9.4789     4.1241 H       2      m2     0.0211
   2221 C           13.8647     8.6841     3.2946 C       2      m2    -0.0187
   2222 C           14.6553     8.7225     2.3402 C       2      m2     0.0050
   2223 H           16.2808     8.5596     7.1800 H       1      m1     0.0225
   2224 C          -17.4290    14.7475     5.2105 C       1      m1     0.0510
   2225 H          -17.1163    13.0739     6.4640 H       1      m1     0.0337
   2226 C          -17.3012    12.0377     4.7202 C       1      m1    -0.0141
   2227 H          -17.3470    12.8833     3.1419 H       1      m1     0.0198
   2228 C          -17.0853    13.4475     5.2824 C       1      m1    -0.0217
   2229 C          -16.5279    11.9729     3.2594 C       1      m1    -0.0232
   2230 C          -15.2739    11.7334     2.6655 C       1      m1    -0.0002
   2231 H          -15.3905    11.3094     4.6232 H       6      m6     0.0201
   2232 C          -14.6032    13.0296     5.9876 C       6      m6    -0.0194
   2233 C          -14.7388    12.0306     5.2095 C       6      m6    -0.0121
   2234 C          -14.0088    12.1677     3.3392 C       1      m1    -0.0226
   2235 H          -13.3773    13.0214     3.4004 H       1      m1     0.0266
   2236 C          -13.5270    14.6104     4.1790 C       1      m1    -0.0123
   2237 C          -12.6360    14.6091     3.1189 C       1      m1    -0.0022
   2238 C          -12.4858    14.8201     5.1853 C       1      m1    -0.0014
   2239 C          -11.5280    14.2997     2.4579 C       1      m1    -0.0034
   2240 C          -11.5732    13.5706     4.5848 C       1      m1    -0.0008
   2241 C          -11.0794    13.1706     3.4898 C       1      m1    -0.0244
   2242 H          -10.1248    12.6442     3.5498 H       1      m1     0.0149
   2243 C           -9.4728    12.6991     7.4262 C       1      m1    -0.0025
   2244 H           -8.4795   -14.9146     3.6425 H       1      m1     0.0207
   2245 H           -9.1145    12.3545     4.8769 H       1      m1     0.0165
   2246 C           -8.2303    13.1081     6.5755 C       1      m1    -0.0070
   2247 C           -8.1134    12.2242     5.3279 C       1      m1    -0.0178
   2248 C           -6.4968    12.3266     5.0631 C       1      m1    -0.0010
   2249 C           -6.0798    12.4537     6.2302 C       1      m1    -0.0015
   2250 C           -5.4267    12.5827     3.9487 C       1      m1    -0.0182
   2251 H           -5.5613    11.6826     3.4544 H       1      m1     0.0182
   2252 C           -4.4600    12.8421     6.4093 C       1      m1    -0.0224
   2253 C           -4.4761    13.7413     4.0177 C       1      m1    -0.0187
   2254 C           -4.2622    14.0433     5.4722 C       1      m1    -0.0006
   2255 H           -3.9940    14.4798     3.2350 H       1      m1     0.0315
   2256 H           -4.3519    11.8334     5.9033 H       1      m1     0.0189
   2257 C           -3.9083    15.2115     6.1981 C       1      m1    -0.0264
   2258 H           -2.7115    13.0668     2.4848 H       1      m1     0.0517
   2259 H           -1.1141    14.5872     5.8679 H       1      m1     0.0115
   2260 H           -0.4873    12.3034     7.5159 H       1      m1     0.0211
   2261 H            0.8501    13.4996     3.6704 H       1      m1     0.0487
   2262 H            0.2126    11.9655     4.8984 H       1      m1     0.0243
   2263 C            0.9441    12.3749     4.0912 C       1      m1    -0.0631
   2264 H            0.5899    11.8287     3.2914 H       1      m1     0.0271
   2265 C            2.2233    12.6561     6.7989 C       1      m1     0.0048
   2266 C            2.1743    12.9349     5.6306 C       1      m1    -0.0007
   2267 C            2.4616    12.9481     4.3040 C       1      m1     0.0147
   2268 C            3.4200    13.2539     3.3047 C       1      m1    -0.0172
   2269 C            4.4316    14.1318     3.0179 C       1      m1    -0.0597
   2270 C            5.8689    14.3160     3.7264 C       1      m1     0.0064
   2271 C            6.3730    13.7735     5.1173 C       1      m1    -0.0094
   2272 C            6.5289    10.9198     6.6008 C       1      m1    -0.0017
   2273 C            6.5811    14.2100     6.4315 C       1      m1    -0.0008
   2274 H            8.4805    14.1258     4.7853 H       1      m1     0.0219
   2275 C            9.2422    14.1417     5.4262 C       1      m1    -0.0402
   2276 C            9.1859    14.6128     6.7801 C       1      m1     0.0233
   2277 H           10.5017    13.8239     5.2115 H       1      m1     0.0314
   2278 H           10.4065    11.6562     6.5178 H       1      m1     0.0292
   2279 C           12.7900    14.6386     4.5361 C       1      m1    -0.0264
   2280 H           12.3777    12.0230     3.6675 H       1      m1     0.0146
   2281 H           13.4545   -15.3084     5.0180 H       1      m1     0.1161
   2282 C           13.4264    13.0770     5.0013 C       1      m1     0.1224
   2283 O           13.5496    12.7662     6.6122 O       1      m1    -0.3929
   2284 C           14.4870    12.2080     5.4086 C       1      m1     0.1524
   2285 C           15.2970    11.3574     4.5238 C       1      m1    -0.0458
   2286 C           16.1512    12.9065     2.9350 C       1      m1    -0.0232
   2287 C           16.6066    11.8870     3.8522 C       1      m1     0.0103
   2288 H           16.9912    14.9565     3.4172 H       1      m1     0.0223
   2289 H          -17.1789    11.1333     5.6740 H       1      m1     0.0162
   2290 H          -17.0756   -12.8600    10.2183 H       1      m1     0.0270
   2291 C          -17.1529   -13.1118     7.1733 C       1      m1    -0.0456
   2292 H          -16.0159   -12.7202     7.4865 H       1      m1     0.0587
   2293 H          -15.2902   -10.9669     8.7973 H       1      m1     0.0219
   2294 O          -15.3174   -14.9295     7.2785 O       1      m1    -0.6196
   2295 H          -14.2064   -13.9712    10.2618 H       1      m1     0.0330
   2296 H          -13.7327   -12.7581     9.2319 H       1      m1     0.0362
   2297 C          -13.3807   -13.5097     9.8910 C       1      m1    -0.0296
   2298 C          -12.2780   -12.9963    11.0259 C       1      m1    -0.0140
   2299 H          -12.4977   -15.1771     8.5709 H       1      m1     0.0370
   2300 C          -12.1227   -11.4777    10.8832 C       1      m1     0.0046
   2301 C          -12.1771   -14.2820     9.1776 C       1      m1    -0.0034
   2302 C          -10.7381   -13.4486    11.0595 C       1      m1    -0.0001
   2303 C          -10.9835   -14.3377     9.7850 C       1      m1    -0.0070
   2304 C           -9.9668   -14.2754    12.0298 C       1      m1     0.0099
   2305 C           -9.7349   -14.5089     8.9284 C       1      m1     0.0045
   2306 C           -9.4532   -11.9681     8.8885 C       1      m1     0.0185
   2307 C           -8.7515   -13.2628     8.4916 C       1      m1    -0.0357
   2308 H           -8.8386   -13.0093     7.3205 H       1      m1     0.0037
   2309 C           -7.6505   -13.4181    11.1551 C       1      m1     0.0279
   2310 C           -7.7682   -13.1416     9.6931 C       1      m1    -0.0097
   2311 C           -6.5328   -12.1483     7.9607 C       1      m1    -0.0783
   2312 C           -6.5671   -12.8743     9.0272 C       1      m1     0.0108
   2313 H           -4.6451   -14.2749     9.5715 H       1      m1     0.0370
   2314 C           -5.1052   -13.2139     9.4435 C       1      m1     0.0262
   2315 C           -4.2921   -12.0878     9.1060 C       1      m1     0.0189
   2316 C           -2.9993   -12.3730     8.5043 C       1      m1     0.0039
   2317 H           -2.2763   -13.0706    10.5057 H       1      m1     0.0413
   2318 C           -2.5873   -11.1741     7.5832 C       1      m1    -0.0541
   2319 C           -2.1283   -13.2702     9.5348 C       1      m1    -0.0199
   2320 C           -1.3383   -15.1940    10.9019 C       1      m1    -0.0074
   2321 C           -0.7050   -13.2557     9.2513 C       1      m1    -0.0036
   2322 H           -0.8220   -12.9545     7.1484 H       1      m1     0.0184
   2323 C           -0.5017   -15.0255     7.8654 C       1      m1     0.0036
   2324 C           -0.5130   -14.0770    10.3991 C       1      m1    -0.0035
   2325 C           -0.1273   -13.5166     7.5892 C       1      m1    -0.0262
   2326 H            1.2145   -11.7298    11.0329 H       1      m1     0.0093
   2327 C            0.9658   -11.1506    10.1156 C       1      m1     0.0002
   2328 C            1.0007   -14.3718    10.8574 C       1      m1    -0.0007
   2329 C            1.1110   -11.2330     8.6118 C       1      m1     0.0079
   2330 C            1.6393   -14.6038     8.7969 C       1      m1    -0.0055
   2331 C            1.4441   -13.4601     7.8074 C       1      m1    -0.0030
   2332 C            2.3110   -12.4475     8.1406 C       1      m1    -0.0049
   2333 C            2.4200   -14.5519    10.2475 C       1      m1    -0.0182
   2334 H            3.1010   -13.7965     9.7386 H       1      m1     0.0185
   2335 C            3.0974   -15.2381    11.5037 C       1      m1     0.0001
   2336 C            3.7442   -12.1236     8.2983 C       1      m1     0.0115
   2337 H            4.1814   -14.5153     7.9699 H       1      m1     0.0199
   2338 C            4.4108   -13.5546     7.4563 C       1      m1    -0.0625
   2339 H            5.0074   -14.4018     9.8450 H       1      m1     0.0123
   2340 H            5.4927   -13.3499     8.1609 H       1      m1     0.0146
   2341 C            5.1366   -15.2788    10.3637 C       1      m1    -0.0024
   2342 H            5.9274   -12.8268    10.5056 H       1      m1     0.0218
   2343 C            6.7095   -11.1834     8.2361 C       1      m1     0.0010
   2344 C            6.9106   -12.6090     9.9030 C       1      m1    -0.0242
   2345 C            7.5200   -12.3539     8.4762 C       1      m1     0.0027
   2346 C            8.1093   -12.9202    10.3632 C       1      m1     0.0126
   2347 C            8.5092   -14.9681     7.3384 C       1      m1    -0.0163
   2348 H            8.9390   -14.2955     8.1052 H       1      m1     0.0492
   2349 C            9.1689   -13.2829    11.1917 C       1      m1    -0.0422
   2350 H           10.0012   -13.7803    10.7752 H       1      m1     0.0245
   2351 H           10.7826    14.9496    10.9190 H       1      m1     0.0214
   2352 O           10.7638   -13.1195     7.3489 O       1      m1    -0.4787
   2353 C           10.9314   -14.6933     7.8688 C       1      m1     0.1778
   2354 C           11.7104   -12.7094     8.4251 C       1      m1     0.2319
   2355 C           11.9025   -14.8644     8.8605 C       1      m1    -0.0406
   2356 C           12.2880   -11.5665     8.2718 C       1      m1    -0.0660
   2357 C           12.3822   -13.6373     9.5786 C       1      m1    -0.0448
   2358 H           13.2887   -11.5791    11.1303 H       1      m1     0.0268
   2359 H           12.9143   -11.9244     9.4433 H       1      m1     0.0108
   2360 H           14.4441   -14.5975    10.5616 H       1      m1     0.0211
   2361 C           13.7364   -13.9396     9.8904 C       1      m1    -0.0016
   2362 C           14.8313   -13.3911     9.1789 C       1      m1    -0.0092
   2363 C           15.7326   -12.7827     8.3599 C       1      m1     0.0186
   2364 C           16.3097   -11.5029     8.9915 C       1      m1    -0.0268
   2365 C           16.7934   -13.3302     7.3665 C       1      m1    -0.0719
   2366 C           16.6863   -14.4747     9.9316 C       1      m1    -0.0042
   2367 C           17.5363   -13.5448    10.6792 C       1      m1    -0.0136
   2368 C          -17.4986   -11.2334     8.7850 C       1      m1     0.0159
   2369 H          -16.4113    -9.8012     9.2905 H       1      m1     0.0297
   2370 C          -16.2300   -10.5228     8.5378 C       1      m1    -0.0431
   2371 C          -14.0317    -8.5584    11.7670 C       1      m1     0.2277
   2372 H          -14.2572    -8.4758     9.8419 H       1      m1     0.0327
   2373 C          -13.6412    -8.2513    10.5591 C       1      m1    -0.0839
   2374 C          -13.5230    -6.8624    10.7217 C       1      m1    -0.0589
   2375 H          -12.3477    -8.1186     8.6290 H       1      m1    -0.0012
   2376 H          -11.5969    -9.3862    10.9421 H       1      m1     0.0170
   2377 C          -12.1450    -8.2167     7.5546 C       1      m1     0.1705
   2378 C          -11.4414   -10.4416    10.7020 C       1      m1    -0.0153
   2379 H          -11.2311    -7.4731     7.2872 H       1      m1    -0.0006
   2380 H          -10.2869   -10.2297     8.8466 H       1      m1     0.0580
   2381 C           -9.6237   -10.1201    10.9034 C       1      m1    -0.0201
   2382 C           -9.7259   -10.8907     9.3234 C       1      m1    -0.0310
   2383 H           -9.9834    -6.4494    10.8350 H       1      m1     0.0180
   2384 C           -8.9982    -7.0185     8.8835 C       1      m1    -0.0086
   2385 H           -9.0337    -9.3811    10.3678 H       1      m1     0.0179
   2386 C           -9.1115    -7.4758     7.6000 C       1      m1    -0.0140
   2387 H           -6.9122    -7.3100    11.8552 H       1      m1     0.0150
   2388 C           -6.4580   -10.8132     8.1545 C       1      m1     0.0412
   2389 C           -5.8192    -7.2359    11.6676 C       1      m1    -0.0177
   2390 H           -5.6045    -9.2511    10.6365 H       1      m1     0.0165
   2391 C           -5.1235   -10.6434     9.1247 C       1      m1    -0.0183
   2392 C           -5.1266    -8.1602    10.7135 C       1      m1    -0.0167
   2393 H           -4.5622    -9.9063     9.6988 H       1      m1     0.0201
   2394 C           -3.9095    -8.0313     9.9741 C       1      m1    -0.0115
   2395 C           -3.1167    -6.8655     9.2744 C       1      m1    -0.0020
   2396 H           -3.1047   -10.3058     8.1571 H       1      m1     0.0231
   2397 C           -2.4543    -8.5971     7.5388 C       1      m1    -0.0173
   2398 C           -2.1390    -7.8579     8.7816 C       1      m1    -0.0065
   2399 H           -2.7623    -8.1161    12.2052 H       1      m1     0.0244
   2400 H           -1.6023    -9.4602     7.8683 H       1      m1     0.0128
   2401 C           -1.1340    -8.1442     9.9890 C       1      m1    -0.0084
   2402 H           -1.3319    -9.9383     9.5055 H       1      m1     0.0123
   2403 C           -0.7111    -9.4034    10.2397 C       1      m1    -0.0012
   2404 C           -0.0612    -7.2403    10.7232 C       1      m1    -0.0128
   2405 H           -0.1809    -7.2354    11.7760 H       1      m1     0.0666
   2406 C            0.6027   -10.0308    10.8777 C       1      m1    -0.0417
   2407 C            0.9900   -10.5465     7.5363 C       1      m1     0.0020
   2408 C            0.6721    -6.7309     9.8231 C       1      m1     0.0523
   2409 H            2.6058    -6.5025     8.6724 H       1      m1     0.0867
   2410 C            4.1767   -10.9538     8.6126 C       1      m1    -0.0328
   2411 O            4.2844    -8.4855     8.4828 O       1      m1    -0.6140
   2412 C            4.9502    -9.8453     8.5779 C       1      m1     0.2679
   2413 H            4.9291    -7.8449     8.6392 H       1      m1     0.3052
   2414 C            6.1916   -10.1336     9.1264 C       1      m1    -0.0656
   2415 H            6.9998    -8.6999    10.0857 H       1      m1     0.0240
   2416 C            7.3453    -9.1064     9.1173 C       1      m1    -0.0056
   2417 C            7.8558    -8.5332     7.8850 C       1      m1     0.0081
   2418 C            8.0425    -6.8419    11.4920 C       1      m1    -0.0154
   2419 C            8.6140    -7.2835     7.6611 C       1      m1     0.0072
   2420 C            9.1830    -6.6698     9.0025 C       1      m1    -0.0219
   2421 H            9.9170    -7.2864     9.4666 H       1      m1     0.0155
   2422 H           10.9164    -8.0583    11.4104 H       1      m1     0.0319
   2423 C           11.6569    -7.0110    11.2265 C       1      m1    -0.0085
   2424 H           12.2359   -10.5759     7.8602 H       1      m1     0.0364
   2425 C           12.4724    -7.4541     9.9967 C       1      m1     0.0035
   2426 H           12.9726    -8.2560     8.0864 H       1      m1     0.0118
   2427 C           13.4004    -7.6966     8.9801 C       1      m1    -0.0184
   2428 C           14.5682    -7.1753     9.5606 C       1      m1     0.0205
   2429 H           14.4463    -6.8318    11.7351 H       1      m1     0.0354
   2430 O           15.6013    -9.9233    11.7172 O       1      m1    -0.4374
   2431 H           15.6651   -11.0803     9.8974 H       1      m1     0.0777
   2432 C           16.1477    -7.2882     9.0921 C       1      m1     0.0129
   2433 C           16.3986    -8.1677     7.9625 C       1      m1     0.0087
   2434 H           16.6607    -5.8335    11.1260 H       1      m1     0.0179
   2435 C           17.0847    -6.5563     9.9667 C       1      m1    -0.0033
   2436 C          -17.2572    -5.9957     9.1950 C       1      m1     0.0022
   2437 C          -17.2196    -2.4504    12.0438 C       1      m1     0.0024
   2438 C          -16.8312    -3.5963    11.1293 C       1      m1    -0.0214
   2439 H          -16.3001    -4.4709    11.3552 H       1      m1     0.0225
   2440 C          -16.5898    -4.9534     9.0279 C       1      m1     0.0195
   2441 C          -15.6137    -3.8454     9.8365 C       1      m1    -0.0172
   2442 C          -15.3864    -2.5058     9.4658 C       1      m1     0.0439
   2443 H          -14.8234    -4.5168    10.2310 H       1      m1     0.0229
   2444 C          -13.7668    -6.4162    12.0146 C       1      m1     0.2384
   2445 H          -12.7478    -6.2983    10.1129 H       1      m1     0.0175
   2446 C          -12.1153    -2.7952     7.8407 C       1      m1     0.3368
   2447 H          -11.6970    -3.7401     7.8128 H       1      m1    -0.0371
   2448 H          -12.1033    -4.2029    11.2179 H       1      m1     0.0168
   2449 C          -10.4311    -2.5825     7.6882 C       1      m1    -0.0562
   2450 C          -10.2660    -2.9770     9.1577 C       1      m1    -0.0265
   2451 H          -10.1959    -4.6176     8.0283 H       1      m1     0.0197
   2452 C          -10.0533    -4.3058     9.0499 C       1      m1    -0.0206
   2453 H           -9.7766    -2.2602     9.7419 H       1      m1     0.0237
   2454 C           -9.0085    -6.4138    10.1018 C       1      m1    -0.0220
   2455 C           -9.1139    -4.9067     9.9592 C       1      m1     0.0053
   2456 H           -8.4480    -3.3378    11.5864 H       1      m1     0.0190
   2457 C           -8.7178    -4.2107    11.2688 C       1      m1    -0.0264
   2458 H           -6.6885    -3.8602     7.6789 H       1      m1     0.0294
   2459 H           -6.0393    -3.8687    10.7510 H       1      m1     0.0197
   2460 H           -6.3180    -5.6318     6.8605 H       1      m1     0.0276
   2461 C           -6.2817    -4.7683     7.2455 C       1      m1    -0.0438
   2462 C           -5.6797    -2.9012    10.2477 C       1      m1    -0.0231
   2463 C           -4.3284    -3.0132     9.5916 C       1      m1    -0.0200
   2464 C           -4.0631    -4.3048     8.6563 C       1      m1     0.0067
   2465 H           -4.0439    -2.7171    10.5197 H       1      m1     0.0232
   2466 C           -3.4858    -3.5543     7.6247 C       1      m1    -0.0021
   2467 C           -3.1198    -5.4943     8.9424 C       1      m1    -0.0218
   2468 H           -2.0475    -5.5658     8.5848 H       1      m1     0.0224
   2469 C           -2.0817    -2.9125     7.6187 C       1      m1    -0.0028
   2470 H           -1.4054    -6.1367    11.7742 H       1      m1     0.0194
   2471 H           -0.9429    -4.8115     7.1674 H       1      m1     0.0318
   2472 C           -1.0291    -3.7677     7.5750 C       1      m1    -0.0279
   2473 C            0.1580    -2.5069     9.1639 C       1      m1     0.1238
   2474 C            0.2851    -3.1767     7.9293 C       1      m1     0.0015
   2475 C            1.2021    -4.3245     7.8804 C       1      m1    -0.0531
   2476 C            1.6333    -4.5392     9.1370 C       1      m1     0.2155
   2477 C            1.7207    -6.0351     9.1644 C       1      m1    -0.0635
   2478 O            1.5405    -3.2325    10.0642 O       1      m1    -0.4670
   2479 H            4.8985    -4.3400    10.6400 H       1      m1     0.0256
   2480 C            5.2407    -3.3208     9.9388 C       1      m1    -0.0132
   2481 C            5.6140    -3.0801     8.6060 C       1      m1     0.0136
   2482 H            6.3066    -6.0602     9.8390 H       1      m1     0.0181
   2483 H            5.8342    -4.7782    11.9849 H       1      m1     0.0132
   2484 C            6.0028    -3.5923     7.6583 C       1      m1    -0.0310
   2485 C            7.1704    -6.0585     9.0555 C       1      m1    -0.0088
   2486 C            7.2589    -5.6230     7.5023 C       1      m1    -0.0364
   2487 H            8.1666    -4.5852    11.5887 H       1      m1     0.0165
   2488 C            8.0975    -6.4343     9.8396 C       1      m1    -0.0090
   2489 C           11.5639    -5.7491    11.7927 C       1      m1    -0.0227
   2490 H           12.4872    -5.1861    11.7206 H       1      m1     0.0199
   2491 C           14.0273    -2.2539     8.8156 C       1      m1    -0.0074
   2492 C           14.6234    -6.2325    10.8744 C       1      m1    -0.0164
   2493 C           14.7249    -4.8610    11.1578 C       1      m1    -0.0273
   2494 C           15.3080    -2.7924     9.5092 C       1      m1    -0.0047
   2495 C           15.4639    -3.7663    10.4965 C       1      m1    -0.0215
   2496 H           15.8028    -4.7620     9.7094 H       1      m1     0.0261
   2497 C          -17.0748     0.0992     8.1781 C       1      m1     0.0279
   2498 H          -16.1146    -0.1088     7.3706 H       1      m1     0.0287
   2499 C          -16.2094     0.4122     9.4653 C       1      m1    -0.0105
   2500 C          -15.8208     1.6827     9.7512 C       1      m1    -0.0032
   2501 C          -14.9928    -0.2669     9.2067 C       1      m1     0.0081
   2502 C          -14.5923    -1.4898     9.8411 C       1      m1     0.0156
   2503 C          -13.5817     0.3662     9.0607 C       1      m1     0.0136
   2504 C          -13.2276    -1.4816    10.7074 C       1      m1     0.0099
   2505 C          -12.9138     0.7746     8.0482 C       1      m1    -0.0126
   2506 C          -13.0251    -2.0687    11.8285 C       1      m1    -0.0139
   2507 C          -12.8403    -0.1567    10.1750 C       1      m1    -0.0005
   2508 H          -11.9582     0.8937     8.4429 H       1      m1     0.0254
   2509 C          -11.7802     0.7394    10.3742 C       1      m1    -0.0094
   2510 C          -10.5587     1.2614    10.6660 C       1      m1    -0.0069
   2511 C           -9.2588     1.8011    10.6362 C       1      m1    -0.0208
   2512 C           -8.6621     1.7405     9.3313 C       1      m1    -0.0028
   2513 H           -9.3259     2.3151    11.6039 H       1      m1     0.0166
   2514 C           -7.8506    -1.4184     7.3145 C       1      m1    -0.0020
   2515 C           -6.8495    -1.1298     8.7861 C       1      m1    -0.0266
   2516 H           -6.2090    -0.5550     8.2697 H       1      m1     0.0225
   2517 C           -6.3735    -2.0570     9.4041 C       1      m1     0.0057
   2518 H           -2.5599    -1.0705     8.5600 H       1      m1     0.0206
   2519 C           -1.9347    -1.3604     7.6917 C       1      m1    -0.0199
   2520 H           -0.7861     0.5577     8.2914 H       1      m1     0.0307
   2521 C           -1.0965    -0.1346    11.4572 C       1      m1     0.3398
   2522 C           -1.0157    -0.2601     7.5463 C       1      m1    -0.0246
   2523 O           -0.9705     1.0792    11.5505 O       1      m1    -0.5082
   2524 H           -1.4345    -0.7040    10.2275 H       1      m1    -0.0117
   2525 H            0.1927     2.0992     8.2980 H       1      m1     0.0276
   2526 H           -0.4075    -1.7081     9.7287 H       1      m1     0.0031
   2527 H            1.7082    -0.3890     8.2997 H       1      m1     0.0254
   2528 H            1.7375    -2.1139    11.7530 H       1      m1     0.0715
   2529 H            2.2452    -0.3038    10.8074 H       1      m1     0.0320
   2530 C            2.7645    -0.7574     7.8844 C       1      m1    -0.0140
   2531 C            2.9116    -2.1224    11.6857 C       1      m1     0.0258
   2532 C            2.9421     0.6433    10.7212 C       1      m1    -0.0194
   2533 H            3.8880     0.8032    11.4539 H       1      m1     0.0265
   2534 H            3.1395    -1.3806     9.8581 H       1      m1     0.0496
   2535 C            3.3546     1.0737     9.2344 C       1      m1     0.0002
   2536 C            3.8648     0.2227     8.2004 C       1      m1    -0.0042
   2537 C            3.8338    -1.5105    10.5439 C       1      m1    -0.0179
   2538 C            5.2185     0.4674     7.5898 C       1      m1    -0.0016
   2539 C            5.2319    -1.9567    10.6292 C       1      m1    -0.0101
   2540 H            6.1344    -2.0421    11.4823 H       1      m1     0.0276
   2541 C            5.6500     1.8431     8.0273 C       1      m1    -0.0155
   2542 H            6.4554     2.2448     7.4123 H       1      m1     0.0168
   2543 H            9.0960     0.2489     7.2755 H       1      m1     0.0163
   2544 C            8.8662     0.7778     8.4409 C       1      m1    -0.0176
   2545 C            8.8658     1.6013     9.5060 C       1      m1    -0.0044
   2546 C            9.3069    -0.5109     9.0123 C       1      m1    -0.0030
   2547 C            9.0738     1.5906    10.8740 C       1      m1    -0.0518
   2548 C            9.1601     0.1723    11.3658 C       1      m1     0.2274
   2549 H           10.3937    -1.0180     8.7240 H       1      m1     0.0187
   2550 C            9.3788    -0.8281    10.4253 C       1      m1    -0.0644
   2551 H            8.9018    -1.9282    10.5343 H       1      m1     0.0351
   2552 H           11.5245     2.5130    11.4115 H       4      m4     0.0283
   2553 H           12.6323     1.9428     9.1777 H       1      m1     0.0270
   2554 H           12.1221    -2.0753     9.9872 H       1      m1     0.0183
   2555 C           12.5727     1.9063    11.5315 C       4      m4    -0.0333
   2556 C           12.8891    -1.8153     9.2840 C       1      m1    -0.0249
   2557 H           12.8712    -0.1195    11.7920 H       4      m4     0.0274
   2558 C           13.3237     0.7717    11.0967 C       4      m4    -0.0425
   2559 H           14.2342     0.9259    10.6203 H       4      m4     0.0182
   2560 H           14.6690    -1.2615     7.9433 H       1      m1     0.0230
   2561 C           16.0366     1.0491     7.1709 C       1      m1     0.2883
   2562 C           16.9771     0.6616     7.8327 C       1      m1    -0.1033
   2563 H          -15.8373     3.7547    10.4599 H       1      m1     0.0380
   2564 C          -16.0378     3.3919     9.5018 C       1      m1     0.0208
   2565 C          -15.5745     3.6801     8.2735 C       1      m1     0.0262
   2566 C          -15.1528     2.0785    10.9756 C       1      m1    -0.0131
   2567 C          -15.1171     5.9405     7.6317 C       1      m1     0.0139
   2568 C          -10.3672     5.3672    11.6443 C       1      m1     0.0007
   2569 C          -10.5527     5.5346    10.6766 C       1      m1    -0.0224
   2570 H          -11.3004     5.5101     9.7820 H       1      m1     0.0166
   2571 C           -7.7017     2.8466     8.7543 C       1      m1    -0.0185
   2572 H           -6.8907     2.4196     7.9044 H       1      m1     0.0178
   2573 H           -6.3662     2.7319    10.5244 H       1      m1     0.0211
   2574 C           -6.3185     6.0865     7.9584 C       1      m1    -0.0113
   2575 C           -5.8304     3.5809    10.9996 C       1      m1    -0.0127
   2576 C           -5.7165     4.7338     8.4420 C       1      m1    -0.0015
   2577 C           -5.5051     4.6673    10.0557 C       1      m1     0.0006
   2578 C           -4.9854     3.9067     7.5686 C       1      m1    -0.0047
   2579 C           -4.7814     5.7156    10.7492 C       1      m1     0.0001
   2580 C           -3.7279     3.1200     7.3226 C       1      m1    -0.0219
   2581 C           -2.7330     3.1575     8.1576 C       1      m1    -0.0051
   2582 H           -2.0957     3.7918     9.8835 H       1      m1     0.0322
   2583 C           -1.6361     3.2638     9.0611 C       1      m1     0.0104
   2584 C           -0.1659     3.1063     8.4043 C       1      m1    -0.0101
   2585 C            0.9234     3.9060     8.4286 C       1      m1     0.0025
   2586 H            1.1423     5.3534     9.8103 H       1      m1     0.0360
   2587 C            1.1813     5.1044     8.9165 C       1      m1    -0.0184
   2588 C            1.8579     6.0971     7.8162 C       1      m1    -0.0082
   2589 C            3.2177     3.6188    10.0785 C       1      m1    -0.0136
   2590 C            3.7385     2.4768     9.2735 C       1      m1     0.0013
   2591 H            2.8110     4.4901     9.4435 H       1      m1     0.0181
   2592 C            3.6741     3.8942    11.4829 C       1      m1    -0.0203
   2593 C            4.5860     6.3870    11.6801 C       1      m1    -0.0205
   2594 C            4.7668     2.8709     8.4338 C       1      m1    -0.0224
   2595 C            4.8106     4.8997    12.1099 C       1      m1     0.0033
   2596 H            5.2506     4.0176     8.3144 H       1      m1     0.0126
   2597 H            6.6022     5.4925    10.5271 H       1      m1     0.0165
   2598 C            7.3095     5.0004    11.2054 C       1      m1    -0.0141
   2599 C            8.7897     5.1082    11.5100 C       1      m1    -0.0128
   2600 H            8.8754     2.8427     9.5837 H       1      m1     0.0152
   2601 H            8.8698     4.8654     7.2273 H       1      m1     0.0156
   2602 H            9.2419     2.4450    11.6062 H       1      m1     0.0349
   2603 C            9.5338     6.1042    11.0514 C       1      m1    -0.0176
   2604 H           10.7887     2.6379     9.6549 H       1      m1     0.0157
   2605 C           11.0411     5.9913    11.4368 C       1      m1    -0.0214
   2606 C           10.9592     2.1913     7.6191 C       1      m1    -0.0051
   2607 C           11.4698     2.0124     8.9399 C       1      m1    -0.0345
   2608 H           11.9163     5.5817    10.7247 H       1      m1     0.0150
   2609 H           13.8825     6.8304     8.1291 H       1      m1     0.0154
   2610 H           14.6790     4.4727    11.1842 H       4      m4     0.0063
   2611 H           16.8456     6.2761     7.1705 H       1      m1    -0.0083
   2612 O           17.5874     5.7887     9.1183 O       1      m1    -0.4792
   2613 C          -15.5962    10.3080     9.8758 C       1      m1    -0.0101
   2614 C          -14.9115     8.4068     9.0365 C       1      m1     0.0047
   2615 C          -15.0212     9.3897    10.1443 C       1      m1     0.0030
   2616 C          -14.5001     7.0061     8.5104 C       1      m1    -0.0004
   2617 H          -13.4425    10.4086     8.3139 H       1      m1     0.0144
   2618 H          -13.3551     7.1903     9.0305 H       1      m1     0.0168
   2619 C          -12.5561     7.6718    11.2331 C       1      m1    -0.0200
   2620 H          -12.4125     6.6332    11.0721 H       1      m1     0.0196
   2621 C          -12.1590     8.9515    11.2410 C       1      m1     0.0013
   2622 C          -12.0467     9.9616    10.1673 C       1      m1    -0.0056
   2623 H          -10.2733    10.5180     7.6441 H       1      m1     0.0182
   2624 C           -6.8853    10.3656     8.2136 C       1      m1    -0.0166
   2625 H           -5.9913    10.2259     8.7726 H       1      m1     0.0245
   2626 H           -5.0865     8.4185     7.4516 H       1      m1     0.0255
   2627 H           -5.3692     6.7040     8.0947 H       1      m1     0.0214
   2628 C           -4.8522     6.8232    10.2225 C       1      m1    -0.0079
   2629 C           -4.8600     8.0741     9.6914 C       1      m1     0.0005
   2630 C           -4.7358     8.6618     8.4203 C       1      m1    -0.0287
   2631 C           -4.4260     8.9728    11.1298 C       1      m1     0.0103
   2632 C           -3.3454     8.8005     8.4447 C       1      m1     0.0196
   2633 C           -3.1118     9.4616    11.1266 C       1      m1    -0.0283
   2634 C           -2.5723     9.3744     7.4910 C       1      m1    -0.0141
   2635 C           -2.4922     8.6892    10.0211 C       1      m1    -0.0551
   2636 H           -1.9948     7.9267    10.6170 H       1      m1     0.0522
   2637 H           -3.1303     9.6978    12.2389 H       1      m1     0.0324
   2638 H           -1.6430     9.9585     7.4856 H       1      m1     0.0602
   2639 H           -1.1546    10.8493     9.2663 H       1      m1     0.0162
   2640 C           -1.2836     9.6524     9.6460 C       1      m1     0.2802
   2641 O           -0.2535     9.2446     8.9916 O       1      m1    -0.4926
   2642 C            1.6939     7.2663     8.2684 C       1      m1     0.0257
   2643 H            1.5915     8.7126    10.0532 H       1      m1     0.0844
   2644 C            2.1268     8.4807     8.2906 C       1      m1     0.0638
   2645 C            2.6313     8.6077     9.6454 C       1      m1    -0.0530
   2646 H            2.9286     7.7072    10.3082 H       1      m1     0.0209
   2647 C            3.5486     9.8854     9.7676 C       1      m1     0.0115
   2648 C            3.7548     9.7771     7.1088 C       1      m1    -0.0155
   2649 C            4.1708    10.1677     8.5047 C       1      m1    -0.0003
   2650 H            4.1389     7.1934    11.1516 H       1      m1     0.0215
   2651 C            5.4740    10.9417    10.1175 C       1      m1    -0.0048
   2652 C            5.7942    10.9833    11.3892 C       1      m1     0.0009
   2653 C            6.0446     9.6450    11.8666 C       1      m1     0.0056
   2654 C            7.0178     8.9899    10.9597 C       1      m1    -0.0174
   2655 H            6.8369     9.2187     9.8792 H       1      m1     0.0179
   2656 C            7.8930     8.3460    11.5269 C       1      m1    -0.0224
   2657 H            8.7339     8.0242    11.1301 H       1      m1     0.0184
   2658 H            9.7057     6.9105    10.2060 H       1      m1     0.0100
   2659 H           11.2188     8.1424     9.6365 H       1      m1     0.0178
   2660 H           11.8900     9.3208    11.0500 H       1      m1     0.0217
   2661 C           11.8189     7.2407    11.5546 C       1      m1    -0.0044
   2662 C           11.7852     8.3811    10.5107 C       1      m1    -0.0418
   2663 C           13.2086     8.4511     9.7896 C       1      m1     0.0068
   2664 H           13.8349    10.0026     8.0429 H       1      m1     0.0408
   2665 C           13.6150     9.8053     9.0146 C       1      m1    -0.0263
   2666 C           13.7372    10.9094     9.7250 C       1      m1     0.0109
   2667 C           14.0408     7.7245     8.9597 C       1      m1    -0.0329
   2668 H           14.9901     8.2491     8.6459 H       1      m1     0.0151
   2669 C           17.0879     6.6658     8.3541 C       1      m1     0.3055
   2670 C           17.2098     7.9197     7.2326 C       1      m1    -0.0883
   2671 H          -16.9351    11.8688    10.0304 H       1      m1     0.0139
   2672 C          -16.8160    14.0491    10.4999 C       1      m1    -0.0149
   2673 H          -16.7766    13.3341    11.2217 H       1      m1     0.0149
   2674 C          -16.3490    11.5117     9.0967 C       1      m1    -0.0144
   2675 H          -15.4710    14.5917     9.2482 H       1      m1     0.0752
   2676 C          -15.5497    14.6682    10.2694 C       1      m1    -0.0238
   2677 C          -15.5845    11.4742     7.7459 C       1      m1    -0.0094
   2678 C          -15.0430    12.2196     8.8680 C       1      m1     0.0004
   2679 H          -14.1182    12.1706    11.8649 H       1      m1     0.0184
   2680 C          -14.1028    14.6043    10.8654 C       1      m1    -0.0022
   2681 H          -13.9456    13.9508     6.4873 H       6      m6     0.0253
   2682 C          -13.7006    12.4504     9.3424 C       1      m1    -0.0025
   2683 C          -13.2620    13.6977    10.1675 C       1      m1     0.0054
   2684 C          -12.9394    11.2109     9.6456 C       1      m1    -0.0057
   2685 H          -12.2783    13.2795    11.8018 H       1      m1     0.0242
   2686 H          -11.4090    14.5119    10.9006 H       1      m1     0.0202
   2687 C          -12.0859    14.0483    10.0576 C       1      m1    -0.0191
   2688 C          -11.4404    11.2655     9.9710 C       1      m1    -0.0011
   2689 C          -10.7516    13.4443     9.4195 C       1      m1    -0.0086
   2690 C          -10.3680    11.9311     9.3393 C       1      m1    -0.0022
   2691 C          -10.2443    13.5600     7.9467 C       1      m1     0.0001
   2692 H           -9.6804    13.0573    10.7471 H       1      m1     0.0209
   2693 C           -9.6158    11.3861     8.1618 C       1      m1    -0.0139
   2694 C           -9.5041    15.1232     8.1895 C       1      m1    -0.0230
   2695 C           -9.3435    15.2166    11.6304 C       1      m1    -0.0045
   2696 C           -9.0568    13.9259    11.0743 C       1      m1    -0.0234
   2697 H           -8.4619    15.1508     7.6972 H       1      m1     0.0155
   2698 C           -8.0502    11.1679     8.7330 C       1      m1     0.0068
   2699 C           -7.6838    11.7607     9.8424 C       1      m1    -0.0082
   2700 C           -7.6565    12.9025    11.1289 C       1      m1     0.0006
   2701 H           -7.4624    13.5795     9.1377 H       1      m1     0.0221
   2702 C           -6.9584    12.7029     7.2098 C       1      m1     0.0038
   2703 C           -6.4100    13.3902     8.4848 C       1      m1    -0.0301
   2704 C           -6.1490    12.7829    10.8668 C       1      m1    -0.0049
   2705 C           -5.7544    12.7346     9.3344 C       1      m1     0.0100
   2706 H           -6.0785    14.4556     7.9920 H       1      m1     0.0224
   2707 C           -4.4967    12.2542     8.9424 C       1      m1    -0.0116
   2708 C           -3.8350    11.6260    10.1189 C       1      m1    -0.0061
   2709 C           -4.0880    12.9607     7.6891 C       1      m1     0.0043
   2710 C           -3.2888    13.8599     8.1791 C       1      m1    -0.0245
   2711 H           -3.0969    13.5299     9.3270 H       1      m1     0.0222
   2712 C           -3.0823    14.9963     7.4172 C       1      m1     0.0088
   2713 C           -2.7447    12.2073    10.5328 C       1      m1    -0.0169
   2714 H           -2.1583    12.3046     8.9246 H       1      m1     0.0065
   2715 H           -2.5144    15.2376    10.4364 H       1      m1     0.0285
   2716 C           -1.8233    12.1464    11.4534 C       1      m1     0.0014
   2717 C           -0.5362    15.0641    12.1037 C       1      m1    -0.0248
   2718 C           -0.3289    12.5921    11.2684 C       1      m1    -0.0271
   2719 H           -0.4679    13.4582    10.7261 H       1      m1     0.0246
   2720 C            0.6921    12.9706     7.2803 C       1      m1    -0.0091
   2721 C            0.7965    15.0841     8.3162 C       1      m1    -0.0022
   2722 C            0.7888    13.5033     8.6545 C       1      m1     0.0004
   2723 C            0.8483    11.8416    11.0184 C       1      m1     0.0044
   2724 C            1.8562    11.0928    10.8322 C       1      m1     0.0092
   2725 C            2.8514    13.2613     8.0356 C       1      m1     0.0038
   2726 C            3.1289    11.2047    10.1272 C       1      m1    -0.0099
   2727 C            3.5731    13.7410     8.6555 C       1      m1    -0.0011
   2728 H            3.5874    11.9338    10.9729 H       1      m1     0.0195
   2729 C            4.8104    14.5036     9.0333 C       1      m1     0.0012
   2730 C            4.5410    15.1317    11.6088 C       1      m1    -0.0165
   2731 C            5.4096    10.8939     8.7438 C       1      m1    -0.0033
   2732 C            5.9612    14.3416     8.5862 C       1      m1    -0.0173
   2733 C            6.3218    11.7336     7.7115 C       1      m1    -0.0036
   2734 C            6.3989    13.1431     7.4695 C       1      m1    -0.0025
   2735 H            6.9618    14.5535     9.0970 H       1      m1     0.0295
   2736 H            7.7896    11.4673    10.4482 H       1      m1     0.0273
   2737 C            8.7087    11.9210    10.7438 C       1      m1     0.0166
   2738 C            9.2486    12.6576     9.5843 C       1      m1    -0.0236
   2739 H            9.6924    13.3982     9.9956 H       1      m1     0.0305
   2740 C            9.6379    11.7759     8.4731 C       1      m1    -0.0029
   2741 H            9.7710    11.0910    12.0011 H       1      m1     0.0137
   2742 C           10.4107    12.2565     7.3067 C       1      m1    -0.0112
   2743 C           10.4856    14.8174     7.3026 C       1      m1    -0.0425
   2744 C           11.4834    14.6419    11.6420 C       1      m1    -0.0123
   2745 C           11.1418    13.5326     7.7385 C       1      m1     0.0500
   2746 C           12.0704    13.3930    10.9876 C       1      m1    -0.0110
   2747 C           12.0998    14.2719     8.7228 C       1      m1     0.0295
   2748 C           12.6408    13.3406     9.7148 C       1      m1     0.0161
   2749 C           13.8664    12.5257     9.9228 C       1      m1     0.0215
   2750 C           15.3051    12.7740    10.2417 C       1      m1     0.0057
   2751 C           15.9607   -15.2835     9.1263 C       1      m1     0.0289
   2752 C           16.5581    13.1285    10.7722 C       1      m1    -0.0239
   2753 H           17.1368    12.2810    11.0264 H       1      m1     0.0158
   2754 C           17.0648    14.2009     9.5115 C       1      m1    -0.0060
   2755 H           16.8180    13.3190     8.8545 H       1      m1     0.0363
   2756 C          -17.2708   -15.2646    15.4789 C       1      m1    -0.0111
   2757 C          -16.5571   -12.9998    12.8766 C       1      m1    -0.0035
   2758 C          -16.0313   -15.2203    14.6637 C       1      m1    -0.0255
   2759 C          -15.5074   -12.3570    13.4008 C       1      m1    -0.0083
   2760 C          -15.1816   -10.9383    12.9213 C       1      m1    -0.0044
   2761 H          -13.9183   -14.1893    12.2519 H       1      m1     0.0154
   2762 C          -14.8402   -14.3016    15.2771 C       1      m1     0.0171
   2763 C          -14.6474   -13.0194    14.5648 C       1      m1    -0.0540
   2764 C          -14.1243   -15.1061    16.2099 C       1      m1     0.0212
   2765 C          -13.3408   -15.2593    12.0143 C       1      m1    -0.0174
   2766 C          -13.0523   -12.8419    14.4313 C       1      m1     0.2860
   2767 H          -12.7979   -13.3501    11.8757 H       1      m1     0.0224
   2768 H          -12.7459   -12.6158    13.4191 H       1      m1    -0.0084
   2769 O          -12.1855   -13.6277    15.0398 O       1      m1    -0.4506
   2770 H           -9.9129   -12.8983    14.1745 H       1      m1     0.0968
   2771 C           -9.8157   -13.0004    13.0011 C       1      m1    -0.0196
   2772 H           -8.7014   -12.5246    12.9221 H       1      m1     0.0232
   2773 C           -8.3382   -10.7153    12.8544 C       1      m1    -0.0198
   2774 H           -7.7624   -13.6138    14.7196 H       1      m1     0.0401
   2775 H           -7.3787   -13.0479    13.5339 H       1      m1     0.0181
   2776 C           -7.8707   -14.6264    14.1692 C       1      m1    -0.0141
   2777 H           -7.2288   -10.8723    12.4859 H       1      m1     0.0280
   2778 C           -7.3982   -13.6195    12.4479 C       1      m1    -0.0558
   2779 H           -6.9985   -14.3940    16.6356 H       1      m1     0.1009
   2780 C           -6.3371   -11.3630    16.1838 C       1      m1     0.0338
   2781 C           -6.1792   -14.4518    14.1758 C       1      m1    -0.0694
   2782 C           -6.0568   -13.9796    12.9798 C       1      m1     0.2388
   2783 C           -6.0289   -14.4017    16.4145 C       1      m1    -0.0203
   2784 C           -5.3730   -14.7700    15.2781 C       1      m1     0.0020
   2785 O           -4.6884   -13.1754    12.4564 O       1      m1    -0.6755
   2786 H           -4.0648   -12.9885    12.9793 H       1      m1     0.3338
   2787 H           -3.8414   -11.3029    16.3176 H       1      m1     0.0445
   2788 C           -2.1529   -14.9436    14.9117 C       1      m1    -0.0331
   2789 H           -1.7131   -14.5457    15.6694 H       1      m1     0.0283
   2790 C           -1.5198   -14.1765    13.9601 C       1      m1     0.0056
   2791 C           -1.0065   -13.4960    13.2838 C       1      m1    -0.0292
   2792 H           -0.4822   -12.9369    12.6259 H       1      m1     0.0216
   2793 H           -0.3931   -13.6947    16.2597 H       1      m1     0.0358
   2794 C            0.6149   -13.4099    16.4044 C       1      m1     0.0115
   2795 C            0.9140   -15.0687    12.0726 C       1      m1    -0.0087
   2796 C            1.6954   -14.0094    15.6451 C       1      m1    -0.0119
   2797 H            2.3466   -12.4240    14.1410 H       1      m1    -0.0188
   2798 C            2.8979   -14.8554    15.3686 C       1      m1     0.0159
   2799 C            3.3095   -12.1210    14.7068 C       1      m1     0.3031
   2800 H            4.8991   -15.1848    14.3378 H       1      m1     0.0321
   2801 C            4.1952   -14.3786    14.6861 C       1      m1    -0.0286
   2802 C            4.5533   -12.9517    14.9028 C       1      m1    -0.0323
   2803 C            5.7690   -13.3140   -16.7764 C       1      m1    -0.0041
   2804 C            5.9544   -12.6567    15.4240 C       1      m1     0.0175
   2805 C            6.7535   -11.5424    15.0412 C       1      m1     0.0233
   2806 H            9.0630   -12.3145    14.1404 H       1      m1     0.0262
   2807 H            9.2933   -12.7273    11.9347 H       1      m1     0.0277
   2808 H            9.9619   -12.1044    16.7612 H       1      m1     0.0330
   2809 C           10.1036   -12.2580    14.5174 C       1      m1    -0.0735
   2810 H           10.2318    15.0593    16.4549 H       1      m1     0.0153
   2811 C           10.3796   -11.3125    16.5607 C       1      m1    -0.0897
   2812 C           10.5825   -11.0906    15.2872 C       1      m1     0.2162
   2813 C           11.0624   -12.3476    13.5710 C       1      m1     0.0372
   2814 C           12.0176   -12.0312    12.4907 C       1      m1     0.0119
   2815 C           13.2162   -11.2044    12.2417 C       1      m1    -0.0096
   2816 H           13.2232   -12.9794    15.8920 H       1      m1     0.0289
   2817 C           13.1984   -14.3281    13.3931 C       1      m1    -0.0057
   2818 C           14.0938   -13.6626    12.9200 C       1      m1    -0.0100
   2819 C           14.4368   -11.4275    16.6071 C       1      m1     0.0063
   2820 C           15.3793   -14.0043    13.0318 C       1      m1    -0.0020
   2821 C           15.7182   -11.6924    15.9342 C       1      m1    -0.0043
   2822 C           15.7923   -15.1805    16.6893 C       1      m1    -0.0070
   2823 C           16.0686   -12.9710    16.3925 C       1      m1    -0.0040
   2824 C           16.5859   -14.7099    12.8748 C       1      m1    -0.0064
   2825 C           17.2463   -14.6998    14.0728 C       1      m1    -0.0048
   2826 C           17.4176   -13.3705   -16.6987 C       1      m1     0.0033
   2827 C           17.6110   -13.7555    12.1902 C       1      m1     0.0019
   2828 H          -16.8767    -5.7068    11.8811 H       1      m1     0.0223
   2829 C          -17.0815    -8.2070    13.6084 C       1      m1     0.0075
   2830 H          -16.6881    -8.3366    12.4348 H       1      m1     0.0596
   2831 C          -16.3664    -8.4790    14.8189 C       1      m1     0.0249
   2832 C          -16.0291    -8.5024    15.9437 C       1      m1    -0.0077
   2833 H          -16.2667   -10.7108    13.3225 H       1      m1     0.0260
   2834 H          -15.0672   -10.6739    16.3225 H       1      m1     0.0208
   2835 C          -14.8320    -9.6393    15.8335 C       1      m1    -0.0222
   2836 O          -14.4133    -7.5257    12.8168 O       1      m1    -0.5289
   2837 C          -14.3348   -10.0523    12.1877 C       1      m1    -0.0262
   2838 C          -13.8450    -9.1413    15.2021 C       1      m1     0.0509
   2839 C          -12.6410    -8.8837    14.7561 C       1      m1     0.0419
   2840 C          -11.4831    -8.5603    14.2642 C       1      m1     0.0249
   2841 C          -10.9730    -7.1376    14.5431 C       1      m1     0.0059
   2842 H          -11.6877    -9.4942    13.3225 H       1      m1     0.0249
   2843 H          -10.3897   -10.5956    12.8999 H       1      m1     0.0423
   2844 O          -10.4021   -10.8375    15.9082 O       1      m1    -0.4189
   2845 C          -10.0388    -6.9504    13.4273 C       1      m1    -0.0066
   2846 C           -9.6185   -10.5133    12.2756 C       1      m1    -0.0171
   2847 C           -7.9005   -10.3448    14.3848 C       1      m1     0.0340
   2848 H           -7.3806    -7.8467    13.6057 H       1      m1     0.0166
   2849 C           -7.0931   -10.9273    15.1921 C       1      m1     0.0090
   2850 C           -6.6978    -7.3128    14.2989 C       1      m1    -0.0166
   2851 C           -5.4559    -7.7351    14.9767 C       1      m1    -0.0047
   2852 H           -4.3832    -7.3673    15.5804 H       1      m1     0.0318
   2853 H           -4.8051    -9.6252    12.4182 H       1      m1     0.0254
   2854 C           -4.9201    -8.4065    13.9524 C       1      m1     0.0016
   2855 C           -4.1967    -9.1369    13.3457 C       1      m1    -0.0121
   2856 C           -2.7141    -9.4246    13.5990 C       1      m1    -0.0205
   2857 C           -2.2809    -6.8432    12.3291 C       1      m1    -0.0414
   2858 H           -1.8615    -8.6781    13.9539 H       1      m1     0.0302
   2859 H           -1.7967    -6.4713    13.3240 H       1      m1     0.0269
   2860 C           -1.2013    -8.9144    16.6020 C       1      m1    -0.0602
   2861 H           -0.8468    -9.6238    15.5743 H       1      m1     0.0258
   2862 C            1.0925    -9.8140    12.2849 C       1      m1     0.3040
   2863 O            1.3839    -8.6703    12.8234 O       1      m1    -0.4943
   2864 H            2.5355    -8.9948    14.4528 H       1      m1     0.1453
   2865 C            3.1292    -7.1436    13.5632 C       1      m1     0.0944
   2866 C            3.1164    -8.0007    14.5580 C       1      m1     0.0023
   2867 O            3.4715   -10.8586    14.8933 O       1      m1    -0.4981
   2868 C            4.3528    -7.6125    15.2313 C       1      m1    -0.0065
   2869 H            4.5256    -6.6731    14.8426 H       1      m1     0.0221
   2870 H            5.3714    -9.5397    15.9973 H       1      m1     0.1021
   2871 C            5.4042    -8.4789    15.7136 C       1      m1     0.0409
   2872 C            6.6959    -7.3776    14.2118 C       1      m1     0.0033
   2873 C            6.7614    -7.8852    15.5750 C       1      m1    -0.0001
   2874 C            7.5565   -10.6967    14.4893 C       1      m1    -0.0229
   2875 H            7.3797    -7.7705    16.5480 H       1      m1     0.0999
   2876 H            7.3231   -10.6444    13.3970 H       1      m1     0.0278
   2877 H            8.2995    -8.9256    15.9034 H       1      m1     0.0428
   2878 C            8.4073   -10.0738    15.4733 C       1      m1    -0.0233
   2879 H            8.2159   -11.1891    16.1197 H       1      m1     0.0453
   2880 H            9.1436    -9.9289    14.9315 H       1      m1     0.0442
   2881 C           10.1540    -6.9162    16.5682 C       1      m1    -0.0655
   2882 C           10.7479    -7.5636    15.4983 C       1      m1    -0.0479
   2883 H           11.2491    -6.7742    13.7501 H       1      m1     0.0318
   2884 C           11.1793    -8.6643    15.7473 C       1      m1     0.2057
   2885 O           11.3556    -9.8914    14.5814 O       1      m1    -0.4562
   2886 C           14.7593   -10.7022    12.6029 C       1      m1     0.2219
   2887 C           14.7107    -6.7136    14.2331 C       1      m1    -0.0152
   2888 H           14.6456    -8.1045    13.1520 H       1      m1     0.0570
   2889 H           15.7468    -8.1578    16.7415 H       1      m1     0.0145
   2890 C           15.4957    -7.6936    13.6151 C       1      m1     0.0061
   2891 C           15.5631   -10.4675    13.6922 C       1      m1     0.0265
   2892 C           16.2558   -10.4998    14.9256 C       1      m1    -0.0245
   2893 C           16.8861    -8.3665    14.2012 C       1      m1    -0.0030
   2894 H           16.3193    -8.2665    15.2606 H       1      m1     0.0140
   2895 H           17.3316   -10.3278    14.5088 H       1      m1     0.0239
   2896 C          -17.2382    -5.9090    15.3054 C       1      m1     0.0234
   2897 C          -17.1992    -2.2116    14.1225 C       1      m1     0.0052
   2898 C          -16.8163    -5.8086    12.9783 C       1      m1    -0.0078
   2899 C          -16.9064    -6.4430    16.6239 C       1      m1     0.0015
   2900 C          -16.4129    -2.1388    15.1778 C       1      m1     0.0154
   2901 C          -16.2568    -5.9983    14.1735 C       1      m1     0.0360
   2902 C          -15.4728    -2.0388    16.0643 C       1      m1     0.0058
   2903 H          -15.1500    -6.0302    14.1139 H       1      m1     0.1441
   2904 O          -14.6447    -4.7383    15.6126 O       1      m1    -0.5300
   2905 C          -14.3521    -4.1669    16.6488 C       1      m1     0.3461
   2906 C          -13.4528    -5.2914    12.3764 C       1      m1    -0.0434
   2907 C          -12.8648    -2.9022    12.7865 C       1      m1     0.0218
   2908 C          -12.7151    -4.3098    11.9941 C       1      m1    -0.0066
   2909 C          -12.3013    -2.7087    14.1352 C       1      m1    -0.0212
   2910 C          -12.2437    -3.4102    15.2180 C       1      m1     0.0351
   2911 C          -11.8154    -4.5254    15.0205 C       1      m1     0.0080
   2912 C          -11.7770    -5.8448    15.0523 C       1      m1     0.0433
   2913 C          -11.4556    -2.7035    16.3321 C       1      m1    -0.0279
   2914 C          -10.1742    -2.4250    16.3725 C       1      m1    -0.0072
   2915 C           -9.2826    -5.7368    16.1058 C       1      m1    -0.0035
   2916 C           -9.2451    -5.7301    13.5553 C       1      m1    -0.0069
   2917 C           -8.9283    -5.1642    12.2402 C       1      m1    -0.0059
   2918 C           -8.6312    -5.7847    14.8945 C       1      m1    -0.0038
   2919 C           -7.5481    -2.6304    16.3432 C       1      m1    -0.0113
   2920 C           -7.1512    -6.2820    15.0370 C       1      m1    -0.0154
   2921 H           -7.2607    -3.0365    15.2606 H       1      m1     0.0159
   2922 H           -6.3523    -5.5218    15.4833 H       1      m1     0.0198
   2923 H           -5.1155    -3.5762    12.9541 H       1      m1     0.0198
   2924 C           -4.8636    -6.4810    12.4992 C       1      m1     0.0022
   2925 C           -4.9240    -2.5946    12.8594 C       1      m1    -0.0311
   2926 C           -3.6345    -6.2421    12.7408 C       1      m1    -0.0149
   2927 H           -3.1671    -5.5763    13.5735 H       1      m1     0.0189
   2928 H           -3.3500    -3.5325    15.0172 H       1      m1     0.0308
   2929 C           -2.7316    -2.7073    14.5349 C       1      m1    -0.0175
   2930 C           -1.3080    -2.4400    14.5553 C       1      m1    -0.0188
   2931 H           -0.6613    -3.0293    15.2490 H       1      m1     0.0214
   2932 C           -0.2969    -6.2406    16.7133 C       1      m1     0.0040
   2933 H            0.1954    -6.1534    15.8452 H       1      m1     0.0262
   2934 C            3.5125    -2.8483    12.7040 C       1      m1    -0.0020
   2935 C            3.5584    -6.0869    13.1384 C       1      m1    -0.0092
   2936 C            4.3590    -3.5762    13.4361 C       1      m1    -0.0242
   2937 C            4.2084    -4.8394    12.7047 C       1      m1     0.0152
   2938 H            5.5435    -2.9703    13.5370 H       1      m1     0.0173
   2939 C            5.4969    -3.5226    16.8323 C       1      m1    -0.0420
   2940 C            5.5857    -5.3940    12.8797 C       1      m1    -0.0256
   2941 H            6.5014    -3.0138    16.6561 H       1      m1     0.0157
   2942 C            6.6986    -6.2793    13.2876 C       1      m1    -0.0173
   2943 H            7.2361    -3.7914    13.4617 H       1      m1     0.0139
   2944 H            7.1284    -5.3469    13.5031 H       1      m1     0.0153
   2945 C            8.0753    -3.8601    12.5307 C       1      m1    -0.0305
   2946 C            8.5037    -2.6388    13.0028 C       1      m1    -0.0593
   2947 C            9.0243    -6.1506    12.0955 C       1      m1    -0.0157
   2948 C            9.4292    -5.6439    16.4632 C       1      m1     0.0395
   2949 H            9.2440    -4.0082    13.9616 H       1      m1     0.0212
   2950 C            9.7737    -5.6251    14.9057 C       1      m1    -0.0112
   2951 H            9.3688    -2.6965    12.2615 H       1      m1     0.0310
   2952 C           10.2251    -5.4618    12.1814 C       1      m1    -0.0008
   2953 C           10.0704    -4.6486    13.6194 C       1      m1    -0.0387
   2954 C           10.6814    -6.6872    14.6425 C       1      m1     0.0177
   2955 H           11.1122    -4.4665    13.9498 H       1      m1     0.0189
   2956 H           13.7452    -4.1902    14.8294 H       1      m1     0.0139
   2957 C           14.9125    -4.0425    15.0753 C       1      m1    -0.0393
   2958 H           15.2301    -4.7489    12.1112 H       1      m1     0.0148
   2959 H           15.0654    -3.2197    14.4591 H       1      m1     0.0168
   2960 C           15.0311    -5.9874    16.4707 C       1      m1     0.0018
   2961 C           15.1701    -3.6624    16.5472 C       1      m1     0.0038
   2962 C           15.3362    -5.3620    15.0107 C       1      m1     0.0050
   2963 H           16.8872    -4.1629    12.8578 H       1      m1     0.0202
   2964 C           16.7093    -5.5886    14.5833 C       1      m1    -0.0051
   2965 C           17.1901    -4.9946    13.4045 C       1      m1    -0.0181
   2966 H          -16.6017    -0.0445    16.3329 H       1      m1     0.0203
   2967 C          -17.0093     1.0008    16.0802 C       1      m1    -0.0213
   2968 C          -16.0782     1.9986    15.1404 C       1      m1    -0.0023
   2969 C          -14.9662     1.4330    12.3441 C       1      m1    -0.0027
   2970 C          -14.6464     1.5425    14.6613 C       1      m1    -0.0024
   2971 C          -14.0986     1.3240    13.4276 C       1      m1    -0.0261
   2972 C          -13.4444     2.2056    15.2491 C       1      m1    -0.0068
   2973 H          -13.1320     1.3910    12.9621 H       1      m1     0.0175
   2974 H          -12.6711     1.3087    15.5274 H       1      m1     0.0147
   2975 H          -12.0059    -1.6226    13.8255 H       1      m1     0.0123
   2976 C           -8.8723    -2.3900    16.4749 C       1      m1    -0.0060
   2977 H           -7.8430    -1.0353    12.5774 H       1      m1     0.0155
   2978 H           -6.6311     1.4639    12.4055 H       1      m1     0.0132
   2979 H           -7.2960     0.7663    15.4862 H       1      m1     0.0207
   2980 C           -6.9140    -0.8519    13.0641 C       1      m1    -0.0236
   2981 C           -6.2851    -2.1049    16.5193 C       1      m1     0.0364
   2982 C           -6.2876     0.7582    15.4690 C       1      m1     0.0095
   2983 C           -6.2634     0.4506    13.1937 C       1      m1    -0.0105
   2984 C           -5.8181    -1.6859    12.9408 C       1      m1     0.0070
   2985 C           -5.4722     0.8299    14.4238 C       1      m1    -0.0160
   2986 C           -5.1440     0.0596    16.3426 C       1      m1     0.0507
   2987 C           -5.0746    -1.3340    16.7733 C       1      m1     0.0129
   2988 C           -4.2117     0.8254    16.7046 C       1      m1    -0.0097
   2989 H           -3.1742    -0.0968    12.1392 H       1      m1     0.0326
   2990 C           -3.5017    -2.0630    13.4195 C       1      m1     0.0033
   2991 C           -2.9415    -0.8218    13.0395 C       1      m1    -0.0013
   2992 C           -2.7069     2.1028    13.8379 C       1      m1     0.0078
   2993 H           -2.1965     1.0737    13.9436 H       1      m1     0.0395
   2994 C           -1.7787    -1.2219    12.3255 C       1      m1    -0.0688
   2995 C           -0.8737    -1.8495    13.3071 C       1      m1     0.0101
   2996 H            0.1610    -1.6371    13.7614 H       1      m1     0.0168
   2997 H            1.4634     0.9222    16.2939 H       1      m1     0.0252
   2998 C            8.6864    -1.4520    15.0167 C       1      m1    -0.0482
   2999 C            8.4721    -1.3820    16.2662 C       1      m1     0.0270
   3000 C            8.8701    -1.4534    13.7120 C       1      m1     0.2404
   3001 O            8.7936    -0.1307    12.8986 O       1      m1    -0.4766
   3002 H           14.1842     0.7762    15.3205 H       1      m1     0.0264
   3003 C           15.1584     0.7503    14.8016 C       1      m1    -0.0077
   3004 H           15.8917    -1.1207    15.8777 H       1      m1     0.0181
   3005 C           16.0204     1.6878    14.2228 C       1      m1     0.0094
   3006 C           15.9476    -0.1671    15.3295 C       1      m1    -0.0491
   3007 H           16.3425    -1.2365    12.8759 H       1      m1     0.0155
   3008 H           16.8653    -0.1199    15.1116 H       1      m1     0.0239
   3009 C           17.0692    -1.9415    13.0830 C       1      m1    -0.0355
   3010 C          -16.9098     3.0288    14.5909 C       1      m1    -0.0002
   3011 H          -16.0420     5.8387    14.5410 H       1      m1     0.0258
   3012 C          -15.7618     6.3095    15.5786 C       1      m1    -0.0181
   3013 C          -14.3949     6.7748    15.9088 C       1      m1    -0.0003
   3014 H          -13.8922     3.9670    14.9497 H       1      m1     0.0251
   3015 C          -13.0878     3.3515    15.3292 C       1      m1    -0.0386
   3016 H          -12.4356     6.2080    12.5915 H       1      m1     0.0192
   3017 H          -12.2621     3.6594    16.0244 H       1      m1     0.0246
   3018 C          -12.4331     5.8290    14.5679 C       1      m1    -0.0016
   3019 C          -11.8917     5.5031    13.4011 C       1      m1    -0.0162
   3020 C          -11.2612     5.5287    15.9680 C       1      m1    -0.0083
   3021 C          -10.8394     4.4412    13.0363 C       1      m1    -0.0139
   3022 H          -11.2107     3.4261    12.5046 H       1      m1     0.0137
   3023 C          -10.0034     5.5401    15.0520 C       1      m1     0.0058
   3024 H           -9.5993     3.3010    14.1464 H       1      m1     0.0142
   3025 C           -9.4513     4.6081    14.0960 C       1      m1    -0.0259
   3026 H           -8.4511     4.7143    13.4769 H       1      m1     0.0183
   3027 H           -6.9603     6.8838    13.2937 H       1      m1     0.0135
   3028 H           -6.0802     4.8069    15.0179 H       1      m1     0.0310
   3029 H           -6.7408     3.0222    14.6209 H       1      m1     0.0177
   3030 H           -5.8436     2.7591    13.1251 H       1      m1     0.0211
   3031 C           -6.0107     3.7388    15.2521 C       1      m1    -0.0544
   3032 C           -5.8331     6.7040    13.9445 C       1      m1    -0.0088
   3033 C           -5.8090     3.5022    12.4620 C       1      m1    -0.0263
   3034 H           -6.0437     3.2885    16.3477 H       1      m1     0.0356
   3035 C           -4.5305     3.6642    14.4411 C       1      m1    -0.0014
   3036 C           -4.3572     3.9754    12.8879 C       1      m1    -0.0019
   3037 C           -4.4978     6.2377    13.1335 C       1      m1     0.0070
   3038 C           -3.9434     6.6247    15.2833 C       1      m1    -0.0040
   3039 H           -2.9628     6.0637    15.6518 H       1      m1     0.0199
   3040 C           -3.8421     5.5281    12.0719 C       1      m1    -0.0225
   3041 C           -3.6419     2.4334    14.9015 C       1      m1    -0.0114
   3042 C           -3.4599     2.7802    16.4522 C       1      m1     0.0142
   3043 C           -3.1861     2.8533    12.7556 C       1      m1    -0.0200
   3044 H           -2.7445     5.4037    11.8435 H       1      m1     0.0256
   3045 H           -2.6005     2.9420    11.9985 H       1      m1     0.0651
   3046 H           -2.0959     6.3506    13.9312 H       1      m1     0.0442
   3047 C           -1.1327     6.2455    16.4383 C       1      m1     0.0426
   3048 H           -0.2178     5.2316    13.0259 H       1      m1     0.0477
   3049 C            0.0261     4.6797    14.0329 C       1      m1     0.0097
   3050 C           -0.2744     5.3870    16.6782 C       1      m1     0.0314
   3051 C            0.0398     4.5939    15.4447 C       1      m1     0.0098
   3052 H            2.5178     2.3853    16.3614 H       1      m1     0.0240
   3053 H            3.2081     3.2783    15.6328 H       1      m1     0.0187
   3054 H            3.3535     3.2145    12.1012 H       1      m1     0.0283
   3055 C            3.5946     3.6406    16.6959 C       1      m1    -0.0613
   3056 C            5.6913     6.5099    16.0363 C       1      m1    -0.0263
   3057 C            6.1882     4.3647    11.8604 C       1      m1    -0.0244
   3058 H            6.4093     3.3770    12.3536 H       1      m1     0.0296
   3059 H            7.1326     5.1406    14.8989 H       1      m1     0.0219
   3060 C            8.1111     5.5891    14.4379 C       1      m1    -0.0146
   3061 H            9.5637     4.5977    12.1977 H       1      m1     0.0238
   3062 C            9.3419     4.9245    14.1216 C       1      m1     0.0037
   3063 H            9.4179     2.7153    13.3752 H       1      m1     0.0477
   3064 C            9.6067     3.3148    14.1414 C       1      m1    -0.0111
   3065 C            9.8789     2.8368    15.2599 C       1      m1     0.0370
   3066 C           10.4261     2.5267    16.2976 C       1      m1     0.0288
   3067 C           10.4476     5.6785    14.3536 C       1      m1     0.0381
   3068 H           10.2452     6.6815    14.7539 H       1      m1     0.0214
   3069 C           11.2198     5.8541    13.0803 C       1      m1    -0.0445
   3070 H           12.7432     6.8632    15.2522 H       1      m1     0.2269
   3071 C           12.6963     5.9468    13.1026 C       1      m1     0.2839
   3072 O           13.3979     6.5216    14.3984 O       1      m1    -0.5121
   3073 O           13.6348     3.7175    13.3369 O       4      m4    -0.4354
   3074 C           13.6738     2.5520    12.3110 C       4      m4     0.1377
   3075 H           12.8577     2.4092    16.2823 H       1      m1     0.0398
   3076 C           14.3648     3.7321    12.0377 C       4      m4     0.1448
   3077 C           15.9920     4.1866    15.9846 C       1      m1    -0.0096
   3078 H           15.0044     4.2786    15.3249 H       1      m1     0.0971
   3079 C           16.4812     5.9797    12.2955 C       1      m1     0.0180
   3080 H           16.4529     4.9602    12.5721 H       1      m1     0.0421
   3081 C           17.1864     5.0761    16.3207 C       1      m1     0.0083
   3082 C           17.0553     2.5595    13.7649 C       1      m1    -0.0147
   3083 H           17.1002     2.1497    12.8582 H       1      m1     0.0205
   3084 H          -16.9831     8.7475    12.3345 H       1      m1     0.0230
   3085 C          -16.4625     6.7354    16.6678 C       1      m1    -0.0034
   3086 H          -14.2018     9.6757    14.2468 H       1      m1     0.0165
   3087 C          -13.3148     6.8582    14.7651 C       1      m1    -0.0059
   3088 C          -13.6603     9.2122    13.3181 C       1      m1    -0.0208
   3089 C          -13.2931     8.0573    13.7781 C       1      m1    -0.0039
   3090 C          -13.2450     9.8664    11.9868 C       1      m1     0.0034
   3091 H          -10.2895    10.1697    12.2765 H       1      m1     0.0130
   3092 H          -10.5648     7.0143    12.4416 H       1      m1     0.0232
   3093 H           -9.4921     9.6138    15.4045 H       1      m1     0.0170
   3094 C           -9.6461     7.4813    12.5106 C       1      m1    -0.0183
   3095 H          -10.3669     7.6598    15.8254 H       1      m1     0.0278
   3096 C           -9.7264     8.9698    12.7549 C       1      m1    -0.0103
   3097 C           -9.4902     6.9292    15.4134 C       1      m1    -0.0103
   3098 C           -8.7168     9.1211    16.1391 C       1      m1    -0.0114
   3099 C           -8.5206     9.6189    12.8835 C       1      m1    -0.0200
   3100 C           -8.2499     7.9469    15.6730 C       1      m1    -0.0302
   3101 H           -7.6381     7.4935    16.5835 H       1      m1     0.1008
   3102 H           -7.6566     9.0195    12.4019 H       1      m1     0.0168
   3103 H           -6.6627    10.3231    15.7993 H       1      m1     0.0168
   3104 H           -6.2688     8.1054    11.6863 H       1      m1     0.0189
   3105 C           -5.4634     8.7401    12.0652 C       1      m1    -0.0411
   3106 C           -5.4739     7.1276    15.1506 C       1      m1    -0.0423
   3107 C           -5.5995     7.8168    16.4728 C       1      m1     0.2444
   3108 H           -6.1229     9.2093    12.6923 H       1      m1     0.0204
   3109 H           -5.9490     8.7554    16.0040 H       1      m1    -0.0078
   3110 C           -3.3157     6.6467    13.8950 C       1      m1    -0.0255
   3111 C           -1.7483     7.1989    16.1332 C       1      m1    -0.0255
   3112 C           -1.6502     7.9079    15.0792 C       1      m1     0.3089
   3113 H           -0.9826    10.5511    15.4764 H       1      m1     0.0531
   3114 O           -0.5584     7.9053    14.3045 O       1      m1    -0.4669
   3115 H            0.4055     9.8938    12.3123 H       1      m1     0.0468
   3116 C            0.2513    10.5947    13.1996 C       1      m1     0.0183
   3117 H            4.3859     9.4106    13.5264 H       1      m1     0.0255
   3118 H            4.6492     6.3369    15.4339 H       1      m1     0.0187
   3119 C            4.9911     9.9880    16.2116 C       1      m1    -0.0022
   3120 C            5.0559     9.0697    12.7513 C       1      m1    -0.0203
   3121 C            4.9449     6.8347    12.9177 C       1      m1    -0.0003
   3122 C            5.3351     7.8745    13.5598 C       1      m1    -0.0030
   3123 H            6.0041    10.8843    14.7062 H       1      m1     0.0289
   3124 C            5.8561    10.1564    15.4434 C       1      m1    -0.0233
   3125 C            6.3507     7.4716    14.7380 C       1      m1    -0.0016
   3126 H            6.4387     8.9301    16.5676 H       1      m1     0.0240
   3127 C            6.7596     8.7950    15.2604 C       1      m1    -0.0283
   3128 C            7.8048     6.9359    13.9312 C       1      m1    -0.0080
   3129 C            7.7560     7.8291    13.0734 C       1      m1    -0.0057
   3130 H            7.8200     8.8854    15.3044 H       1      m1     0.0182
   3131 C            9.5636     9.7363    16.4303 C       1      m1    -0.0264
   3132 H           10.0009     9.8554    15.3936 H       1      m1     0.0122
   3133 H           10.9526     7.9506   -16.6551 H       1      m1     0.0461
   3134 C           13.1317     7.0282    11.9872 C       1      m1    -0.0440
   3135 H           13.8111     7.6762    12.0466 H       1      m1     0.0563
   3136 C           16.0542    10.3957    13.2841 C       1      m1    -0.0005
   3137 C           16.5776     7.0171    12.0840 C       1      m1     0.0373
   3138 C           16.6339     9.4398    12.9587 C       1      m1     0.0059
   3139 C           17.1854     8.3988    12.5626 C       1      m1    -0.0100
   3140 H          -15.9493    14.5513    14.2909 H       1      m1     0.0165
   3141 H          -14.4032    13.5383    15.7483 H       1      m1     0.0164
   3142 C          -14.3488    14.3100    16.5172 C       1      m1    -0.0249
   3143 C          -13.4070    15.0707    13.4412 C       1      m1     0.0189
   3144 C          -13.4257    11.2772    12.1253 C       1      m1    -0.0182
   3145 C          -12.6540    11.9300    13.1708 C       1      m1    -0.0168
   3146 H          -12.0413    11.3649    13.9916 H       1      m1     0.0135
   3147 C          -12.3383    14.2961    14.0198 C       1      m1     0.0247
   3148 C          -12.4603    13.3008    12.9125 C       1      m1    -0.0289
   3149 C          -10.9624    14.3287    14.3430 C       1      m1     0.0280
   3150 H          -10.7200    12.3170    16.3134 H       1      m1     0.0241
   3151 H           -9.8348    12.2059    14.5195 H       1      m1     0.0141
   3152 C           -9.9611    12.7896    15.5282 C       1      m1    -0.0447
   3153 C           -9.7165    14.2251    15.1287 C       1      m1     0.0203
   3154 H           -9.3648    11.2225    11.9116 H       1      m1     0.0153
   3155 C           -8.4801    11.0679    12.8981 C       1      m1    -0.0164
   3156 C           -8.5939    15.0061    14.2644 C       1      m1     0.0071
   3157 C           -7.5554    13.0809    12.6239 C       1      m1    -0.0141
   3158 C           -7.5571    11.8835    13.3645 C       1      m1    -0.0215
   3159 H           -6.6513    11.6204    14.0247 H       1      m1     0.0126
   3160 H           -7.1379    14.0570    13.0343 H       1      m1     0.0205
   3161 C           -5.2964    12.7860    12.0529 C       1      m1     0.0032
   3162 H           -4.9055    12.9004    14.2674 H       1      m1     0.0184
   3163 C           -4.6464    12.6275    13.3476 C       1      m1    -0.0234
   3164 H           -4.3053   -14.5982    15.1821 H       1      m1     0.0213
   3165 C           -3.1034    12.1748    13.8399 C       1      m1    -0.0018
   3166 C           -2.5808    13.5136    16.0716 C       1      m1    -0.0185
   3167 C           -2.5914    12.2349    15.2559 C       1      m1     0.0187
   3168 C           -2.3176    14.5609    15.3738 C       1      m1     0.0033
   3169 C           -2.1963    11.7373    12.7790 C       1      m1     0.0006
   3170 C           -1.2391    11.4458    14.8882 C       1      m1    -0.0141
   3171 C           -0.9042    11.3672    13.4934 C       1      m1     0.0040
   3172 H           -0.6836    14.5462    12.9098 H       1      m1     0.0207
   3173 H            0.6470    13.5822    13.6999 H       1      m1     0.0159
   3174 C            1.3215    11.4088    13.2821 C       1      m1    -0.0034
   3175 C            1.5425    12.7011    13.5517 C       1      m1    -0.0203
   3176 C            2.2051    14.9060    12.5266 C       1      m1    -0.0171
   3177 C            2.2949    14.5653    15.0301 C       1      m1     0.0030
   3178 C            2.4087    13.2612    14.5650 C       1      m1     0.0086
   3179 C            3.7216    12.3979    14.7269 C       1      m1    -0.0246
   3180 H            4.6981    12.2257    14.2090 H       1      m1     0.0299
   3181 C            4.4398    13.1397    15.4791 C       1      m1     0.0074
   3182 H            4.9882    11.6024    12.1100 H       1      m1     0.0276
   3183 C            5.2886    14.0311    15.9791 C       1      m1     0.0298
   3184 H            5.1954    14.8704    12.5090 H       1      m1     0.0518
   3185 C            6.2103    14.9389    16.0728 C       1      m1    -0.0157
   3186 H            7.2241    14.4864    15.7851 H       1      m1     0.0238
   3187 O            7.6113    13.5200    13.1411 O       1      m1    -0.4588
   3188 H            8.2788    12.4396    15.1419 H       1      m1    -0.0160
   3189 C            8.2341    13.4670    14.4674 C       1      m1     0.1717
   3190 H            8.6566    14.4199    15.0994 H       1      m1    -0.0081
   3191 C            8.8524    12.5909    13.1962 C       1      m1     0.1549
   3192 C            9.4402    12.1647    12.0844 C       1      m1    -0.0380
   3193 H           10.6467   -15.3372    13.7367 H       1      m1     0.0212
   3194 C           11.3919    14.7682    13.0511 C       1      m1    -0.0162
   3195 C           12.6680    15.1984    13.5759 C       1      m1    -0.0065
   3196 C           13.1360    13.4199    11.9485 C       1      m1    -0.0033
   3197 C           13.5131    13.7938    13.0891 C       1      m1    -0.0066
   3198 C           14.7816    12.6233    12.9525 C       1      m1    -0.0054
   3199 H           16.2597    14.6540    16.1812 H       1      m1     0.0215
   3200 C           15.5247    11.6078    13.2355 C       1      m1    -0.0047
   3201 B           17.6240   -15.3618    16.8408 B       8     BOX     0.0000
   3202 B          -17.6240   -15.3618    16.8408 B       8     BOX     0.0000
   3203 B          -17.6240    15.3618    16.8408 B       8     BOX     0.0000
   3204 B           17.6240    15.3618    16.8408 B       8     BOX     0.0000
   3205 B           17.6240   -15.3618   -16.8408 B       8     BOX     0.0000
   3206 B          -17.6240   -15.3618   -16.8408 B       8     BOX     0.0000
   3207 B          -17.6240    15.3618   -16.8408 B       8     BOX     0.0000
   3208 B           17.6240    15.3618   -16.8408 B       8     BOX     0.0000
@<TRIPOS>BOND
     1      1      2      1
     2      1     80      1
     3      2      4      1
     4      3      4      1
     5      3    403      1
     6      4      8      1
     7      6      7      1
     8      6      8      1
     9      6     80      1
    10      8      9      1
    11      9     11      1
    12      9     12      1
    13     12     14      1
    14     13     87      1
    15     13     90      1
    16     13    462      1
    17     14     15      1
    18     15     91      1
    19     16     90      1
    20     17     18      1
    21     18     19      1
    22     18     20      1
    23     21     23      1
    24     22     25      1
    25     22     26      1
    26     23     28      1
    27     24     27      1
    28     24     29      1
    29     25     26      1
    30     25    101      1
    31     26     30      1
    32     28     32      1
    33     30     34      1
    34     31    479      1
    35     32     33      1
    36     32     35      1
    37     34    480      1
    38     35     37      1
    39     35    108      1
    40     36     39      1
    41     38     39      1
    42     38     40      1
    43     38     41      1
    44     39    482      1
    45     39    487      1
    46     40     41      1
    47     41     43      1
    48     42   2794      1
    49     43     45      1
    50     44     45      1
    51     44    487      1
    52     45    490      1
    53     46    494      1
    54     47    495      1
    55     48     51      1
    56     48    122      1
    57     48   2803      1
    58     49     52      1
    59     49   2803      1
    60     50     52      1
    61     52     54      1
    62     53    128      1
    63     54     56      1
    64     54     57      1
    65     55    130      1
    66     56     57      1
    67     56     60      1
    68     57     59      1
    69     58     59      1
    70     59     61      1
    71     60     62      1
    72     61     62      1
    73     61     63      1
    74     62     65      1
    75     63     66      1
    76     64     67      1
    77     64    512      1
    78     66    515      1
    79     67     68      1
    80     67    138      1
    81     69     70      1
    82     69   2816      1
    83     70   2822      1
    84     70   2823      1
    85     71     72      1
    86     71     73      1
    87     71    520      1
    88     73     74      1
    89     73    518      1
    90     75   2826      1
    91     76    143      1
    92     77     79      1
    93     77    527      1
    94     78     80      1
    95     79     82      1
    96     79    144      1
    97     81     83      1
    98     82     83      1
    99     82    151      1
   100     83     84      1
   101     84     85      1
   102     84     88      1
   103     85     86      1
   104     86     87      1
   105     87    536      1
   106     88    161      1
   107     89     90      1
   108     91     92      1
   109     92     94      1
   110     93     95      1
   111     94     96      1
   112     94     98      1
   113     95     96      1
   114     95    540      1
   115     96     97      1
   116     99    102      1
   117    100    101      1
   118    100    103      1
   119    101    547      1
   120    102    105      1
   121    102    172      1
   122    103    106      1
   123    103    548      1
   124    104    105      1
   125    104    108      1
   126    105    107      1
   127    107    109      1
   128    107    174      1
   129    110    111      1
   130    111    113      1
   131    111    114      1
   132    112    113      1
   133    113    114      1
   134    114    115      1
   135    115    116      1
   136    115    556      1
   137    115    559      1
   138    117    120      1
   139    118    119      1
   140    118    184      1
   141    119    121      1
   142    120    121      1
   143    120    122      1
   144    121    124      1
   145    122    127      1
   146    123    126      1
   147    125    127      1
   148    126    129      1
   149    126    193      1
   150    128    130      1
   151    128    565      1
   152    130    131      1
   153    131    570      1
   154    132    134      1
   155    133    136      1
   156    134    135      1
   157    135    137      1
   158    136    137      1
   159    139    140      1
   160    139    142      1
   161    139    204      1
   162    141    142      1
   163    142    143      1
   164    148    149      1
   165    148    211      1
   166    149    150      1
   167    150    209      1
   168    150    585      1
   169    151    154      1
   170    151    586      1
   171    153    157      1
   172    155    156      1
   173    155    213      1
   174    156    158      1
   175    157    160      1
   176    157    161      1
   177    158    159      1
   178    158    160      1
   179    159    595      1
   180    159    658      1
   181    160    162      1
   182    161    163      1
   183    162    163      1
   184    162    596      1
   185    163    164      1
   186    163    165      1
   187    164    166      1
   188    164    167      1
   189    166    169      1
   190    167    168      1
   191    167    219      1
   192    170    171      1
   193    170    172      1
   194    171    612      1
   195    172    174      1
   196    173    175      1
   197    175    176      1
   198    175    229      1
   199    175    236      1
   200    177    620      1
   201    178    180      1
   202    179    182      1
   203    181    182      1
   204    182    183      1
   205    184    185      1
   206    185    186      1
   207    186    187      1
   208    187    191      1
   209    187    247      1
   210    188    189      1
   211    188    190      1
   212    189    190      1
   213    190    191      1
   214    191    192      1
   215    192    634      1
   216    193    635      1
   217    194    195      1
   218    194    249      1
   219    195    196      1
   220    196    197      1
   221    196    199      1
   222    198    200      1
   223    199    203      1
   224    199    256      1
   225    200    201      1
   226    200    642      1
   227    201    202      1
   228    202    204      1
   229    203    205      1
   230    204    206      1
   231    205    257      1
   232    207    646      1
   233    208    210      1
   234    210    656      1
   235    212    656      1
   236    213    214      1
   237    215    657      1
   238    215    658      1
   239    217    218      1
   240    218    219      1
   241    218    220      1
   242    220    222      1
   243    220    225      1
   244    221    225      1
   245    222    224      1
   246    222    226      1
   247    223    226      1
   248    224    606      1
   249    226    669      1
   250    227    230      1
   251    228    229      1
   252    229    230      1
   253    230    231      1
   254    231    673      1
   255    232    234      1
   256    235    236      1
   257    236    238      1
   258    237    238      1
   259    239    240      1
   260    240    241      1
   261    241    242      1
   262    241    243      1
   263    242    244      1
   264    244    245      1
   265    244    687      1
   266    245    302      1
   267    245    761      1
   268    246    247      1
   269    246    248      1
   270    246    689      1
   271    250    253      1
   272    251    253      1
   273    251    315      1
   274    251    319      1
   275    252    254      1
   276    253    254      1
   277    253    255      1
   278    254    701      1
   279    258    260      1
   280    258    329      1
   281    258    331      1
   282    259    261      1
   283    261    262      1
   284    261    264      1
   285    263    331      1
   286    265    267      1
   287    266    267      1
   288    266    722      1
   289    267    268      1
   290    268    270      1
   291    268    341      1
   292    268    342      1
   293    269    270      1
   294    270    272      1
   295    270    274      1
   296    271    727      1
   297    273    274      1
   298    274    277      1
   299    275    276      1
   300    275    727      1
   301    275    731      1
   302    276    277      1
   303    277    278      1
   304    279    280      1
   305    280    734      1
   306    280    737      1
   307    281    353      1
   308    281    356      1
   309    281    737      1
   310    282    283      1
   311    283    737      1
   312    283    741      1
   313    284    287      1
   314    285    286      1
   315    285    287      1
   316    287    288      1
   317    289    290      1
   318    290    291      1
   319    290    292      1
   320    290    293      1
   321    292    294      1
   322    293    295      1
   323    293    373      1
   324    293    754      1
   325    294    297      1
   326    296    298      1
   327    297    298      1
   328    298    299      1
   329    298    302      1
   330    300   3055      1
   331    301   3055      1
   332    302    303      1
   333    303    304      1
   334    304    306      1
   335    304    307      1
   336    305    308      1
   337    306    311      1
   338    306    383      1
   339    308    309      1
   340    308    312      1
   341    310    313      1
   342    311    313      1
   343    311    388      1
   344    311    831      1
   345    312    389      1
   346    313    316      1
   347    313    769      1
   348    314    315      1
   349    316    318      1
   350    316    773      1
   351    317    320      1
   352    318    320      1
   353    319    321      1
   354    320    321      1
   355    321    322      1
   356    321    323      1
   357    323    328      1
   358    324    327      1
   359    324    397      1
   360    325    326      1
   361    326    327      1
   362    326    329      1
   363    327    328      1
   364    328    330      1
   365    330    331      1
   366    333   3081      1
   367    334    337      1
   368    335    340      1
   369    336    338      1
   370    336    787      1
   371    337    338      1
   372    337    339      1
   373    338    342      1
   374    339    341      1
   375    340    343      1
   376    340    405      1
   377    341    347      1
   378    342    344      1
   379    343    345      1
   380    343    346      1
   381    343    408      1
   382    344    791      1
   383    348    349      1
   384    348    350      1
   385    349    796      1
   386    349    800      1
   387    350    351      1
   388    350    352      1
   389    351    354      1
   390    351    417      1
   391    352    418      1
   392    352    800      1
   393    354    357      1
   394    355    356      1
   395    355    802      1
   396    356    801      1
   397    357    358      1
   398    358    424      1
   399    359    360      1
   400    361    362      1
   401    362    364      1
   402    362    365      1
   403    363    364      1
   404    364    366      1
   405    365    367      1
   406    365    813      1
   407    366    367      1
   408    366    370      1
   409    367    369      1
   410    368    370      1
   411    369    373      1
   412    369    814      1
   413    370    372      1
   414    371    372      1
   415    372    374      1
   416    374    376      1
   417    375    380      1
   418    375    437      1
   419    376    380      1
   420    376    381      1
   421    377    381      1
   422    378    382      1
   423    379    382      1
   424    379    822      1
   425    381    383      1
   426    382    441      1
   427    383    385      1
   428    384    385      1
   429    385    386      1
   430    386    387      1
   431    386    831      1
   432    387    446      1
   433    387    832      1
   434    389    392      1
   435    390    450      1
   436    391    448      1
   437    392   3133      1
   438    393    394      1
   439    393    450      1
   440    394    395      1
   441    394    396      1
   442    395    397      1
   443    396    451      1
   444    396    456      1
   445    397    398      1
   446    399    400      1
   447    399    401      1
   448    399    456      1
   449    401    402      1
   450    405    406      1
   451    406    407      1
   452    406    408      1
   453    409    410      1
   454    410    411      1
   455    410    413      1
   456    412    415      1
   457    413    416      1
   458    414    416      1
   459    415    416      1
   460    416    417      1
   461    417    418      1
   462    418    420      1
   463    419    420      1
   464    420    422      1
   465    421    422      1
   466    422    423      1
   467    424    426      1
   468    425    426      1
   469    426    427      1
   470    427    428      1
   471    427    430      1
   472    428    431      1
   473    429    430      1
   474    430    432      1
   475    431    432      1
   476    432    866      1
   477    434    435      1
   478    435    436      1
   479    435    438      1
   480    436    438      1
   481    436    877      1
   482    440    877      1
   483    441    442      1
   484    441    881      1
   485    442    443      1
   486    442    885      1
   487    443    445      1
   488    443    446      1
   489    444    445      1
   490    445    447      1
   491    446    449      1
   492    447    448      1
   493    449    450      1
   494    449    895      1
   495    450    451      1
   496    452    453      1
   497    453    454      1
   498    455    456      1
   499    457    458      1
   500    458    460      1
   501    458    461      1
   502    459    460      1
   503    459    462      1
   504    459    535      1
   505    460    463      1
   506    461    464      1
   507    461    919      1
   508    462    465      1
   509    463    465      1
   510    463    857      1
   511    464    919      1
   512    465    466      1
   513    466    467      1
   514    466    468      1
   515    467    469      1
   516    470    472      1
   517    471    541      1
   518    472    541      1
   519    472    935      1
   520    473    474      1
   521    474    475      1
   522    474    476      1
   523    476    477      1
   524    476    480      1
   525    477    478      1
   526    477    481      1
   527    478   1311      1
   528    479    482      1
   529    479    549      1
   530    480    482      1
   531    480    483      1
   532    482    485      1
   533    484    551      1
   534    486    488      1
   535    487    556      1
   536    488    489      1
   537    489    491      1
   538    490    495      1
   539    491    492      1
   540    491    496      1
   541    493    494      1
   542    493    561      1
   543    493    565      1
   544    494    495      1
   545    496    497      1
   546    497    499      1
   547    497    500      1
   548    498    501      1
   549    501    502      1
   550    501    505      1
   551    502    507      1
   552    502    566      1
   553    503    505      1
   554    504    506      1
   555    505    506      1
   556    506    510      1
   557    507    509      1
   558    507    571      1
   559    508    510      1
   560    508    959      1
   561    510    511      1
   562    511    513      1
   563    512    513      1
   564    513    514      1
   565    515    518      1
   566    516    517      1
   567    516    578      1
   568    517    520      1
   569    517    577      1
   570    518    519      1
   571    519    521      1
   572    520    521      1
   573    521    523      1
   574    522    523      1
   575    522    962      1
   576    523    524      1
   577    525    529      1
   578    525    583      1
   579    526    528      1
   580    527    530      1
   581    528    966      1
   582    531    532      1
   583    532    534      1
   584    532    970      1
   585    533    536      1
   586    535    536      1
   587    537    538      1
   588    537    599      1
   589    539    540      1
   590    541    543      1
   591    542    543      1
   592    543    544      1
   593    544    545      1
   594    544    987      1
   595    545    609      1
   596    545    614      1
   597    546    614      1
   598    547    548      1
   599    547    549      1
   600    548    550      1
   601    550    620      1
   602    551    554      1
   603    551    994      1
   604    552    557      1
   605    553    554      1
   606    553    558      1
   607    553    996      1
   608    554    555      1
   609    555    556      1
   610    557    559      1
   611    557    626      1
   612    559    560      1
   613    562    563      1
   614    563    564      1
   615    563    632      1
   616    564    567      1
   617    564   1004      1
   618    565    566      1
   619    566    567      1
   620    567    568      1
   621    567    569      1
   622    570    572      1
   623    572    573      1
   624    572    638      1
   625    573    574      1
   626    573    575      1
   627    576    578      1
   628    578    579      1
   629    579    580      1
   630    580    645      1
   631    580    650      1
   632    581    582      1
   633    583    588      1
   634    583   1066      1
   635    584    586      1
   636    586    589      1
   637    587    589      1
   638    587    590      1
   639    588    590      1
   640    588   1019      1
   641    589    592      1
   642    590    593      1
   643    591    593      1
   644    593   1025      1
   645    594    595      1
   646    594    597      1
   647    594    661      1
   648    595    596      1
   649    596    600      1
   650    597    598      1
   651    597    600      1
   652    599    600      1
   653    600    601      1
   654    602    605      1
   655    603   1087      1
   656    604    607      1
   657    604    976      1
   658    605    607      1
   659    606    608      1
   660    607    609      1
   661    609    610      1
   662    609   1033      1
   663    610    615      1
   664    610   1035      1
   665    611    613      1
   666    611    614      1
   667    611    615      1
   668    612    613      1
   669    615    616      1
   670    616    617      1
   671    616    618      1
   672    618    621      1
   673    618   1037      1
   674    618   1101      1
   675    619    621      1
   676    620    622      1
   677    621    623      1
   678    621   1041      1
   679    623    624      1
   680    624    625      1
   681    625    628      1
   682    625    684      1
   683    626    627      1
   684    627    628      1
   685    627    630      1
   686    628    629      1
   687    629    631      1
   688    629    692      1
   689    632    633      1
   690    632   1051      1
   691    634    635      1
   692    634    636      1
   693    635    638      1
   694    636    637      1
   695    637    639      1
   696    639    640      1
   697    639    698      1
   698    641   1133      1
   699    643   1060      1
   700    644    645      1
   701    645    646      1
   702    647    649      1
   703    647   1065      1
   704    648    649      1
   705    649    712      1
   706    651    717      1
   707    652    653      1
   708    652    654      1
   709    653    654      1
   710    655    656      1
   711    656    720      1
   712    658    661      1
   713    659    660      1
   714    659   1074      1
   715    659   1075      1
   716    659   1079      1
   717    660    661      1
   718    660    662      1
   719    662    663      1
   720    662    726      1
   721    663    664      1
   722    664    667      1
   723    664    731      1
   724    665    666      1
   725    666   1085      1
   726    666   1087      1
   727    668   1091      1
   728    670    671      1
   729    670    672      1
   730    672   1101      1
   731    673    674      1
   732    673    676      1
   733    675    676      1
   734    675    678      1
   735    675    747      1
   736    676    677      1
   737    676    679      1
   738    678    679      1
   739    678    753      1
   740    679    680      1
   741    680    684      1
   742    681    682      1
   743    681    685      1
   744    682    685      1
   745    682    756      1
   746    683   1109      1
   747    684    685      1
   748    685    687      1
   749    686    688      1
   750    686    758      1
   751    687    689      1
   752    688    691      1
   753    688   1110      1
   754    690    692      1
   755    690   1110      1
   756    690   1112      1
   757    692    693      1
   758    694   1128      1
   759    695    697      1
   760    696    697      1
   761    696   1124      1
   762    697    699      1
   763    699    700      1
   764    700    701      1
   765    700    702      1
   766    701    703      1
   767    702    704      1
   768    703    706      1
   769    703    775      1
   770    705    706      1
   771    705    709      1
   772    706    708      1
   773    707    712      1
   774    708    711      1
   775    708    713      1
   776    709    710      1
   777    709    711      1
   778    709    715      1
   779    711    714      1
   780    712    714      1
   781    713    715      1
   782    713    783      1
   783    714    717      1
   784    715    716      1
   785    715    781      1
   786    718    720      1
   787    719    720      1
   788    719    722      1
   789    720    721      1
   790    722    723      1
   791    724    726      1
   792    724   1157      1
   793    725    726      1
   794    725    727      1
   795    728    730      1
   796    729    732      1
   797    729   1159      1
   798    730    733      1
   799    730    734      1
   800    732    733      1
   801    732    735      1
   802    733    736      1
   803    737    740      1
   804    738    739      1
   805    738    742      1
   806    738   1172      1
   807    740    801      1
   808    743    744      1
   809    743    804      1
   810    743   1236      1
   811    744    746      1
   812    744   1179      1
   813    745    747      1
   814    746    748      1
   815    747    748      1
   816    749    751      1
   817    750   1184      1
   818    750   1187      1
   819    751    754      1
   820    751    814      1
   821    752    755      1
   822    754    755      1
   823    755    756      1
   824    756    758      1
   825    757    758      1
   826    757    759      1
   827    757   1194      1
   828    760    762      1
   829    761    764      1
   830    762    764      1
   831    762    767      1
   832    763    765      1
   833    763    766      1
   834    763   1198      1
   835    767    769      1
   836    767    825      1
   837    768    770      1
   838    769    770      1
   839    770    771      1
   840    771    772      1
   841    771    773      1
   842    773    775      1
   843    774    776      1
   844    775    777      1
   845    776    778      1
   846    776    835      1
   847    777    779      1
   848    779    780      1
   849    780    782      1
   850    782    784      1
   851    782    786      1
   852    783    786      1
   853    784    847      1
   854    787    788      1
   855    789    791      1
   856    790   1155      1
   857    790   1159      1
   858    791    793      1
   859    792    794      1
   860    792    851      1
   861    793    797      1
   862    794    795      1
   863    794    797      1
   864    797    798      1
   865    799    859      1
   866    800    860      1
   867    801    803      1
   868    802    803      1
   869    802    806      1
   870    803    805      1
   871    805    808      1
   872    806    807      1
   873    808    809      1
   874    808   1235      1
   875    810    811      1
   876    811    814      1
   877    811    815      1
   878    812    815      1
   879    815    817      1
   880    816    868      1
   881    817    818      1
   882    818    819      1
   883    819    820      1
   884    819    822      1
   885    821    822      1
   886    823    824      1
   887    824    827      1
   888    824    828      1
   889    825    826      1
   890    826    827      1
   891    827    829      1
   892    828    830      1
   893    828    887      1
   894    831    833      1
   895    832    833      1
   896    832    834      1
   897    833    835      1
   898    836    838      1
   899    836    896      1
   900    836    898      1
   901    837    839      1
   902    839    840      1
   903    839    898      1
   904    840    841      1
   905    840    842      1
   906    841    843      1
   907    843    844      1
   908    843    845      1
   909    846    910      1
   910    850    851      1
   911    851    853      1
   912    852    853      1
   913    853    855      1
   914    854    856      1
   915    855    858      1
   916    855   1301      1
   917    856    858      1
   918    858    862      1
   919    859    860      1
   920    860    864      1
   921    861    863      1
   922    862    863      1
   923    862   1305      1
   924    863    864      1
   925    864    865      1
   926    866    867      1
   927    867    868      1
   928    868    870      1
   929    869    870      1
   930    871    873      1
   931    872    873      1
   932    873    876      1
   933    874    875      1
   934    874   1322      1
   935    876    877      1
   936    876    878      1
   937    878    879      1
   938    880    884      1
   939    883    885      1
   940    884    886      1
   941    885    886      1
   942    886    887      1
   943    887    889      1
   944    888    889      1
   945    889    891      1
   946    890    891      1
   947    891   1332      1
   948    892    893      1
   949    892    894      1
   950    892    895      1
   951    895    897      1
   952    898    900      1
   953    899    901      1
   954    900    902      1
   955    901    904      1
   956    901    905      1
   957    902    903      1
   958    902    904      1
   959    904    907      1
   960    905   1342      1
   961    905   1346      1
   962    906    910      1
   963    907    908      1
   964    907    909      1
   965    908   1346      1
   966    910   1347      1
   967    911    912      1
   968    911    913      1
   969    914    915      1
   970    915    917      1
   971    916    972      1
   972    917    918      1
   973    917    921      1
   974    919    972      1
   975    920    921      1
   976    921    923      1
   977    921   1360      1
   978    922    926      1
   979    923    924      1
   980    923    926      1
   981    925    981      1
   982    925   1362      1
   983    925   1367      1
   984    926    927      1
   985    926    928      1
   986    928    929      1
   987    928    930      1
   988    930    931      1
   989    930    933      1
   990    930    934      1
   991    931    935      1
   992    931    936      1
   993    932    936      1
   994    932   1371      1
   995    932   1438      1
   996    935    985      1
   997    936    986      1
   998    937    938      1
   999    938    939      1
  1000    939    940      1
  1001    940    941      1
  1002    941    993      1
  1003    941   1380      1
  1004    942    945      1
  1005    942   1385      1
  1006    943    944      1
  1007    944    947      1
  1008    945    946      1
  1009    945    947      1
  1010    946   1387      1
  1011    947    948      1
  1012    948    949      1
  1013    948    950      1
  1014    950    951      1
  1015    951    953      1
  1016    952   1393      1
  1017    952   1454      1
  1018    953    954      1
  1019    954    955      1
  1020    955    956      1
  1021    955    957      1
  1022    957   1008      1
  1023    958   1410      1
  1024    960   1413      1
  1025    961   1415      1
  1026    962    963      1
  1027    965    967      1
  1028    965   1015      1
  1029    965   1422      1
  1030    966    969      1
  1031    967   1352      1
  1032    968    969      1
  1033    969    970      1
  1034    970    972      1
  1035    971   1027      1
  1036    972    974      1
  1037    973   1362      1
  1038    974    975      1
  1039    975    978      1
  1040    975    982      1
  1041    976   1029      1
  1042    977    979      1
  1043    977   1029      1
  1044    977   1030      1
  1045    978    979      1
  1046    978    981      1
  1047    979    980      1
  1048    981   1431      1
  1049    983    984      1
  1050    984    988      1
  1051    985    986      1
  1052    985    987      1
  1053    987    991      1
  1054    988    989      1
  1055    988    991      1
  1056    990    991      1
  1057    991    992      1
  1058    994    995      1
  1059    994    996      1
  1060    996    997      1
  1061    998    999      1
  1062    999   1047      1
  1063   1000   1002      1
  1064   1001   1002      1
  1065   1002   1003      1
  1066   1002   1453      1
  1067   1005   1050      1
  1068   1005   1054      1
  1069   1005   1458      1
  1070   1006   1007      1
  1071   1007   1465      1
  1072   1007   1466      1
  1073   1008   1009      1
  1074   1010   1011      1
  1075   1010   1012      1
  1076   1011   1012      1
  1077   1011   1014      1
  1078   1013   1014      1
  1079   1016   1018      1
  1080   1016   1066      1
  1081   1017   1018      1
  1082   1018   1069      1
  1083   1019   1020      1
  1084   1020   1021      1
  1085   1020   1022      1
  1086   1023   1024      1
  1087   1023   1488      1
  1088   1023   1489      1
  1089   1025   1027      1
  1090   1026   1027      1
  1091   1027   1029      1
  1092   1028   1489      1
  1093   1031   1494      1
  1094   1032   1090      1
  1095   1034   1035      1
  1096   1035   1037      1
  1097   1036   1038      1
  1098   1036   1095      1
  1099   1036   1503      1
  1100   1038   1039      1
  1101   1039   1040      1
  1102   1039   1510      1
  1103   1040   1042      1
  1104   1040   1043      1
  1105   1041   1044      1
  1106   1041   1104      1
  1107   1043   1512      1
  1108   1043   1517      1
  1109   1045   1047      1
  1110   1045   1049      1
  1111   1046   1048      1
  1112   1046   1517      1
  1113   1047   1048      1
  1114   1048   1520      1
  1115   1051   1052      1
  1116   1052   1055      1
  1117   1053   1055      1
  1118   1054   1055      1
  1119   1055   1056      1
  1120   1056   1057      1
  1121   1057   1058      1
  1122   1058   1133      1
  1123   1058   1134      1
  1124   1059   1062      1
  1125   1060   1062      1
  1126   1060   1136      1
  1127   1061   1062      1
  1128   1062   1064      1
  1129   1063   1064      1
  1130   1064   1065      1
  1131   1067   1070      1
  1132   1068   1069      1
  1133   1070   1071      1
  1134   1070   1149      1
  1135   1072   1073      1
  1136   1072   1074      1
  1137   1072   1153      1
  1138   1076   1077      1
  1139   1076   1078      1
  1140   1076   1539      1
  1141   1077   1078      1
  1142   1078   1541      1
  1143   1080   1084      1
  1144   1080   1162      1
  1145   1080   1541      1
  1146   1081   1083      1
  1147   1082   1541      1
  1148   1083   1084      1
  1149   1083   1164      1
  1150   1083   1171      1
  1151   1084   1086      1
  1152   1084   1169      1
  1153   1087   1088      1
  1154   1088   1089      1
  1155   1088   1090      1
  1156   1090   1092      1
  1157   1091   1094      1
  1158   1091   1171      1
  1159   1092   1093      1
  1160   1093   1094      1
  1161   1094   1176      1
  1162   1095   1098      1
  1163   1095   1555      1
  1164   1096   1098      1
  1165   1097   1178      1
  1166   1098   1099      1
  1167   1098   1102      1
  1168   1100   1101      1
  1169   1101   1104      1
  1170   1102   1103      1
  1171   1102   1512      1
  1172   1103   1104      1
  1173   1104   1105      1
  1174   1106   1108      1
  1175   1106   1109      1
  1176   1106   1192      1
  1177   1107   1568      1
  1178   1109   1110      1
  1179   1111   1112      1
  1180   1112   1114      1
  1181   1112   1116      1
  1182   1113   1118      1
  1183   1113   1575      1
  1184   1115   1118      1
  1185   1117   1119      1
  1186   1118   1123      1
  1187   1119   1199      1
  1188   1119   1200      1
  1189   1120   1122      1
  1190   1121   1124      1
  1191   1122   1200      1
  1192   1122   1647      1
  1193   1123   1126      1
  1194   1123   1127      1
  1195   1124   1125      1
  1196   1125   1126      1
  1197   1125   1128      1
  1198   1126   1129      1
  1199   1128   1130      1
  1200   1129   1131      1
  1201   1129   1132      1
  1202   1132   1134      1
  1203   1133   1134      1
  1204   1133   1136      1
  1205   1134   1137      1
  1206   1135   1137      1
  1207   1137   1138      1
  1208   1137   1594      1
  1209   1138   1139      1
  1210   1138   1141      1
  1211   1140   1142      1
  1212   1140   1205      1
  1213   1140   1660      1
  1214   1143   1145      1
  1215   1144   1532      1
  1216   1144   1601      1
  1217   1145   1146      1
  1218   1147   1148      1
  1219   1148   1153      1
  1220   1149   1152      1
  1221   1150   1152      1
  1222   1150   1606      1
  1223   1151   1155      1
  1224   1151   1213      1
  1225   1152   1156      1
  1226   1153   1154      1
  1227   1157   1158      1
  1228   1158   1159      1
  1229   1158   1160      1
  1230   1161   1163      1
  1231   1162   1163      1
  1232   1162   1615      1
  1233   1163   1164      1
  1234   1164   1166      1
  1235   1165   1167      1
  1236   1165   1168      1
  1237   1165   1226      1
  1238   1166   1167      1
  1239   1166   1172      1
  1240   1167   1170      1
  1241   1171   1172      1
  1242   1173   1624      1
  1243   1174   1233      1
  1244   1174   1625      1
  1245   1175   1177      1
  1246   1176   1177      1
  1247   1176   1178      1
  1248   1177   1179      1
  1249   1178   1181      1
  1250   1179   1180      1
  1251   1179   1184      1
  1252   1180   1183      1
  1253   1180   1236      1
  1254   1181   1182      1
  1255   1182   1636      1
  1256   1183   1185      1
  1257   1183   1241      1
  1258   1184   1185      1
  1259   1185   1188      1
  1260   1186   1188      1
  1261   1188   1190      1
  1262   1188   1245      1
  1263   1189   1564      1
  1264   1190   1193      1
  1265   1191   1246      1
  1266   1192   1193      1
  1267   1193   1194      1
  1268   1195   1196      1
  1269   1195   1572      1
  1270   1197   1198      1
  1271   1198   1199      1
  1272   1200   1201      1
  1273   1202   1264      1
  1274   1202   1267      1
  1275   1203   1205      1
  1276   1204   1206      1
  1277   1205   1207      1
  1278   1205   1657      1
  1279   1206   1207      1
  1280   1207   1208      1
  1281   1209   1210      1
  1282   1211   1286      1
  1283   1211   1664      1
  1284   1215   1216      1
  1285   1215   1290      1
  1286   1216   1218      1
  1287   1216   1296      1
  1288   1217   1218      1
  1289   1217   1219      1
  1290   1217   1674      1
  1291   1219   1220      1
  1292   1219   1675      1
  1293   1221   1224      1
  1294   1222   1223      1
  1295   1222   1224      1
  1296   1223   1226      1
  1297   1224   1225      1
  1298   1225   1227      1
  1299   1225   1302      1
  1300   1226   1227      1
  1301   1227   1228      1
  1302   1228   1229      1
  1303   1228   1689      1
  1304   1230   1304      1
  1305   1230   1689      1
  1306   1230   1692      1
  1307   1231   1232      1
  1308   1232   1239      1
  1309   1232   1773      1
  1310   1233   1234      1
  1311   1233   1699      1
  1312   1235   1236      1
  1313   1235   1237      1
  1314   1238   1239      1
  1315   1239   1240      1
  1316   1239   1310      1
  1317   1242   1243      1
  1318   1242   1318      1
  1319   1243   1246      1
  1320   1243   1709      1
  1321   1244   1245      1
  1322   1245   1246      1
  1323   1247   1248      1
  1324   1248   1249      1
  1325   1248   1319      1
  1326   1249   1252      1
  1327   1249   1324      1
  1328   1250   1251      1
  1329   1251   1252      1
  1330   1251   1254      1
  1331   1252   1257      1
  1332   1253   1254      1
  1333   1254   1259      1
  1334   1255   1256      1
  1335   1255   1258      1
  1336   1255   1721      1
  1337   1257   1259      1
  1338   1257   1260      1
  1339   1258   1260      1
  1340   1258   1797      1
  1341   1259   1261      1
  1342   1259   1263      1
  1343   1260   1329      1
  1344   1262   1263      1
  1345   1263   1264      1
  1346   1264   1267      1
  1347   1265   1266      1
  1348   1265   1726      1
  1349   1265   1728      1
  1350   1267   1268      1
  1351   1268   1269      1
  1352   1269   1272      1
  1353   1269   1273      1
  1354   1270   1733      1
  1355   1271   1274      1
  1356   1271   1338      1
  1357   1272   1275      1
  1358   1272   1340      1
  1359   1273   1276      1
  1360   1274   1275      1
  1361   1274   1277      1
  1362   1275   1279      1
  1363   1276   1278      1
  1364   1277   1280      1
  1365   1277   1739      1
  1366   1279   1281      1
  1367   1282   1287      1
  1368   1283   1288      1
  1369   1284   1285      1
  1370   1285   1286      1
  1371   1285   1288      1
  1372   1287   1289      1
  1373   1287   1347      1
  1374   1288   1289      1
  1375   1290   1291      1
  1376   1291   1292      1
  1377   1291   1293      1
  1378   1292   1294      1
  1379   1293   1295      1
  1380   1295   1297      1
  1381   1295   1746      1
  1382   1297   1298      1
  1383   1299   1300      1
  1384   1300   1302      1
  1385   1300   1755      1
  1386   1300   1757      1
  1387   1302   1304      1
  1388   1303   1763      1
  1389   1307   1308      1
  1390   1307   1309      1
  1391   1309   1312      1
  1392   1310   1313      1
  1393   1312   1313      1
  1394   1313   1314      1
  1395   1314   1315      1
  1396   1314   1316      1
  1397   1315   1317      1
  1398   1315   1782      1
  1399   1318   1319      1
  1400   1318   1782      1
  1401   1320   1322      1
  1402   1321   1784      1
  1403   1322   1323      1
  1404   1325   1327      1
  1405   1326   1799      1
  1406   1327   1328      1
  1407   1327   1330      1
  1408   1328   1331      1
  1409   1329   1330      1
  1410   1330   1332      1
  1411   1331   1336      1
  1412   1332   1333      1
  1413   1332   1336      1
  1414   1334   1335      1
  1415   1335   1338      1
  1416   1335   1803      1
  1417   1336   1337      1
  1418   1336   1339      1
  1419   1341   1342      1
  1420   1343   1344      1
  1421   1344   1345      1
  1422   1344   1811      1
  1423   1344   1816      1
  1424   1346   1348      1
  1425   1347   1349      1
  1426   1348   1349      1
  1427   1350   1351      1
  1428   1351   1355      1
  1429   1351   1826      1
  1430   1352   1354      1
  1431   1353   1356      1
  1432   1354   1355      1
  1433   1355   1357      1
  1434   1356   1751      1
  1435   1356   1829      1
  1436   1358   1360      1
  1437   1359   1361      1
  1438   1359   1753      1
  1439   1360   1361      1
  1440   1360   1362      1
  1441   1361   1363      1
  1442   1362   1429      1
  1443   1364   1839      1
  1444   1365   1839      1
  1445   1365   1917      1
  1446   1366   1369      1
  1447   1366   1842      1
  1448   1367   1368      1
  1449   1367   1371      1
  1450   1369   1370      1
  1451   1369   1373      1
  1452   1371   1431      1
  1453   1372   1373      1
  1454   1372   1842      1
  1455   1372   1848      1
  1456   1373   1374      1
  1457   1375   1439      1
  1458   1376   1851      1
  1459   1377   1378      1
  1460   1377   1379      1
  1461   1378   1379      1
  1462   1378   1380      1
  1463   1379   1382      1
  1464   1379   1383      1
  1465   1380   1384      1
  1466   1381   1383      1
  1467   1386   1387      1
  1468   1387   1388      1
  1469   1389   1390      1
  1470   1389   1448      1
  1471   1391   1392      1
  1472   1392   1393      1
  1473   1392   1396      1
  1474   1393   1454      1
  1475   1394   1395      1
  1476   1394   1868      1
  1477   1396   1398      1
  1478   1397   1399      1
  1479   1398   1402      1
  1480   1398   1403      1
  1481   1398   1404      1
  1482   1399   1401      1
  1483   1399   1871      1
  1484   1400   1405      1
  1485   1400   1868      1
  1486   1401   1402      1
  1487   1402   1406      1
  1488   1403   1404      1
  1489   1405   1407      1
  1490   1405   1408      1
  1491   1406   1408      1
  1492   1406   1409      1
  1493   1409   1410      1
  1494   1409   1412      1
  1495   1410   1414      1
  1496   1411   1413      1
  1497   1414   1415      1
  1498   1414   1467      1
  1499   1415   1473      1
  1500   1416   1417      1
  1501   1417   1418      1
  1502   1417   1419      1
  1503   1418   1421      1
  1504   1418   1893      1
  1505   1419   1420      1
  1506   1420   1421      1
  1507   1422   1423      1
  1508   1424   1425      1
  1509   1425   1428      1
  1510   1425   1907      1
  1511   1426   1427      1
  1512   1427   1428      1
  1513   1427   1429      1
  1514   1428   1430      1
  1515   1431   1435      1
  1516   1432   1434      1
  1517   1433   1436      1
  1518   1433   1917      1
  1519   1434   1437      1
  1520   1434   1499      1
  1521   1435   1437      1
  1522   1435   1438      1
  1523   1436   1437      1
  1524   1436   1439      1
  1525   1437   1441      1
  1526   1438   1440      1
  1527   1439   1440      1
  1528   1442   1506      1
  1529   1443   1924      1
  1530   1444   1511      1
  1531   1444   1926      1
  1532   1445   1447      1
  1533   1446   1447      1
  1534   1447   1449      1
  1535   1447   1450      1
  1536   1448   1451      1
  1537   1449   1451      1
  1538   1449   1452      1
  1539   1451   1453      1
  1540   1453   1454      1
  1541   1455   1456      1
  1542   1456   1458      1
  1543   1456   1459      1
  1544   1457   1459      1
  1545   1458   1465      1
  1546   1459   1460      1
  1547   1459   1464      1
  1548   1461   1462      1
  1549   1462   1463      1
  1550   1462   1942      1
  1551   1463   1464      1
  1552   1463   1523      1
  1553   1464   1465      1
  1554   1466   1467      1
  1555   1467   1469      1
  1556   1468   1469      1
  1557   1468   1470      1
  1558   1469   1471      1
  1559   1470   1525      1
  1560   1471   1473      1
  1561   1471   1474      1
  1562   1472   1475      1
  1563   1475   1476      1
  1564   1475   1478      1
  1565   1476   1890      1
  1566   1477   1953      1
  1567   1478   1479      1
  1568   1479   1480      1
  1569   1480   1534      1
  1570   1482   1485      1
  1571   1483   1484      1
  1572   1484   1486      1
  1573   1485   1486      1
  1574   1486   1487      1
  1575   1488   1539      1
  1576   1489   1494      1
  1577   1490   1492      1
  1578   1490   1970      1
  1579   1491   1494      1
  1580   1492   1493      1
  1581   1493   1494      1
  1582   1493   1543      1
  1583   1495   1544      1
  1584   1496   1549      1
  1585   1497   1498      1
  1586   1498   1500      1
  1587   1498   1974      1
  1588   1500   1501      1
  1589   1500   1551      1
  1590   1502   1503      1
  1591   1502   1555      1
  1592   1503   1504      1
  1593   1505   1506      1
  1594   1505   1507      1
  1595   1505   1988      1
  1596   1506   1511      1
  1597   1507   1509      1
  1598   1507   1990      1
  1599   1508   1510      1
  1600   1509   1513      1
  1601   1509   1514      1
  1602   1510   1516      1
  1603   1511   1515      1
  1604   1512   1563      1
  1605   1514   1566      1
  1606   1517   1569      1
  1607   1518   1519      1
  1608   1518   1991      1
  1609   1521   1571      1
  1610   1521   1573      1
  1611   1522   1584      1
  1612   1524   2004      1
  1613   1526   1528      1
  1614   1527   1528      1
  1615   1527   2009      1
  1616   1527   2014      1
  1617   1528   1530      1
  1618   1529   1531      1
  1619   1530   1531      1
  1620   1530   1533      1
  1621   1531   1534      1
  1622   1536   1537      1
  1623   1536   1603      1
  1624   1538   1539      1
  1625   1540   1541      1
  1626   1542   1617      1
  1627   1544   1547      1
  1628   1544   2028      1
  1629   1545   1548      1
  1630   1545   2028      1
  1631   1545   2032      1
  1632   1546   1547      1
  1633   1547   1549      1
  1634   1549   1550      1
  1635   1549   1551      1
  1636   1551   1553      1
  1637   1552   1630      1
  1638   1553   1554      1
  1639   1553   1558      1
  1640   1554   1555      1
  1641   1556   1557      1
  1642   1557   2037      1
  1643   1557   2040      1
  1644   1559   1562      1
  1645   1560   1561      1
  1646   1561   2046      1
  1647   1562   1563      1
  1648   1562   1564      1
  1649   1563   1567      1
  1650   1564   1568      1
  1651   1565   1566      1
  1652   1566   2048      1
  1653   1567   1568      1
  1654   1567   1569      1
  1655   1569   1571      1
  1656   1570   1572      1
  1657   1571   1573      1
  1658   1572   1575      1
  1659   1573   1576      1
  1660   1574   2062      1
  1661   1577   1578      1
  1662   1578   1579      1
  1663   1578   1646      1
  1664   1579   1583      1
  1665   1579   2062      1
  1666   1580   1581      1
  1667   1581   1646      1
  1668   1581   1647      1
  1669   1582   1584      1
  1670   1583   1584      1
  1671   1583   1585      1
  1672   1584   1586      1
  1673   1585   1587      1
  1674   1585   1589      1
  1675   1585   2071      1
  1676   1586   1588      1
  1677   1586   1590      1
  1678   1590   1592      1
  1679   1591   1593      1
  1680   1591   1655      1
  1681   1592   1594      1
  1682   1595   1596      1
  1683   1596   1597      1
  1684   1596   2079      1
  1685   1597   1599      1
  1686   1598   1599      1
  1687   1599   1600      1
  1688   1600   1663      1
  1689   1602   1605      1
  1690   1603   2092      1
  1691   1604   1605      1
  1692   1605   1606      1
  1693   1606   1675      1
  1694   1607   1608      1
  1695   1608   1609      1
  1696   1608   1610      1
  1697   1610   1611      1
  1698   1610   1612      1
  1699   1611   2095      1
  1700   1611   2100      1
  1701   1613   1616      1
  1702   1614   1618      1
  1703   1614   2100      1
  1704   1616   1680      1
  1705   1616   1685      1
  1706   1617   1618      1
  1707   1617   1619      1
  1708   1618   1621      1
  1709   1619   1622      1
  1710   1620   1621      1
  1711   1621   1623      1
  1712   1621   2107      1
  1713   1622   1624      1
  1714   1623   1626      1
  1715   1623   2109      1
  1716   1624   1625      1
  1717   1625   1627      1
  1718   1626   1627      1
  1719   1626   1629      1
  1720   1627   1694      1
  1721   1628   1630      1
  1722   1629   1630      1
  1723   1630   1631      1
  1724   1632   1633      1
  1725   1632   1697      1
  1726   1632   2115      1
  1727   1633   1635      1
  1728   1634   1635      1
  1729   1635   1636      1
  1730   1636   1638      1
  1731   1637   2123      1
  1732   1639   1640      1
  1733   1639   2049      1
  1734   1640   1641      1
  1735   1640   2128      1
  1736   1640   2133      1
  1737   1642   1719      1
  1738   1643   1719      1
  1739   1644   1645      1
  1740   1644   1646      1
  1741   1644   2136      1
  1742   1647   1648      1
  1743   1649   1650      1
  1744   1649   1728      1
  1745   1650   1651      1
  1746   1651   1653      1
  1747   1651   2144      1
  1748   1652   1655      1
  1749   1653   1655      1
  1750   1654   1737      1
  1751   1656   1658      1
  1752   1656   1737      1
  1753   1658   2154      1
  1754   1658   2219      1
  1755   1659   1662      1
  1756   1660   1661      1
  1757   1660   1663      1
  1758   1661   1662      1
  1759   1661   1664      1
  1760   1662   1665      1
  1761   1662   1667      1
  1762   1663   1667      1
  1763   1666   1667      1
  1764   1669   1671      1
  1765   1670   1671      1
  1766   1670   1673      1
  1767   1671   1672      1
  1768   1673   1676      1
  1769   1673   1743      1
  1770   1676   1677      1
  1771   1676   1678      1
  1772   1677   1747      1
  1773   1679   1680      1
  1774   1680   1681      1
  1775   1681   1686      1
  1776   1681   2174      1
  1777   1682   1683      1
  1778   1682   1684      1
  1779   1682   1686      1
  1780   1684   1755      1
  1781   1686   1688      1
  1782   1687   1689      1
  1783   1688   1690      1
  1784   1689   1691      1
  1785   1690   1693      1
  1786   1692   1769      1
  1787   1692   1773      1
  1788   1693   1694      1
  1789   1693   1696      1
  1790   1694   1697      1
  1791   1695   1696      1
  1792   1696   2186      1
  1793   1697   1698      1
  1794   1698   1699      1
  1795   1698   1701      1
  1796   1699   1704      1
  1797   1700   1705      1
  1798   1701   1702      1
  1799   1701   1703      1
  1800   1701   1707      1
  1801   1705   2189      1
  1802   1705   2191      1
  1803   1706   1779      1
  1804   1708   1711      1
  1805   1710   1711      1
  1806   1711   1713      1
  1807   1711   1783      1
  1808   1712   1714      1
  1809   1712   2126      1
  1810   1713   1714      1
  1811   1713   1715      1
  1812   1714   2199      1
  1813   1715   1717      1
  1814   1715   1787      1
  1815   1716   1718      1
  1816   1718   1720      1
  1817   1718   1721      1
  1818   1719   1721      1
  1819   1720   1795      1
  1820   1720   1797      1
  1821   1722   1723      1
  1822   1722   1798      1
  1823   1722   2208      1
  1824   1724   2137      1
  1825   1725   1726      1
  1826   1726   1730      1
  1827   1727   1729      1
  1828   1728   1733      1
  1829   1729   1731      1
  1830   1729   1732      1
  1831   1730   1731      1
  1832   1730   1734      1
  1833   1733   1734      1
  1834   1735   1736      1
  1835   1736   1737      1
  1836   1736   2216      1
  1837   1736   2219      1
  1838   1737   1738      1
  1839   1740   1741      1
  1840   1741   1742      1
  1841   1741   2222      1
  1842   1743   1744      1
  1843   1744   1745      1
  1844   1744   1747      1
  1845   1744   1748      1
  1846   1746   1747      1
  1847   1746   1749      1
  1848   1748   1750      1
  1849   1748   2230      1
  1850   1750   1752      1
  1851   1751   1753      1
  1852   1754   1758      1
  1853   1754   2239      1
  1854   1755   1760      1
  1855   1756   1758      1
  1856   1758   1761      1
  1857   1759   1760      1
  1858   1760   1762      1
  1859   1761   1764      1
  1860   1762   1769      1
  1861   1763   1765      1
  1862   1764   1765      1
  1863   1764   1768      1
  1864   1765   1767      1
  1865   1766   1768      1
  1866   1768   1770      1
  1867   1768   1771      1
  1868   1769   1771      1
  1869   1771   1772      1
  1870   1771   1774      1
  1871   1773   1775      1
  1872   1776   1778      1
  1873   1777   1778      1
  1874   1777   1780      1
  1875   1777   2191      1
  1876   1777   2258      1
  1877   1778   1779      1
  1878   1779   1781      1
  1879   1781   1782      1
  1880   1781   1783      1
  1881   1782   1784      1
  1882   1783   1785      1
  1883   1784   1786      1
  1884   1785   1786      1
  1885   1785   1787      1
  1886   1786   1791      1
  1887   1787   1789      1
  1888   1788   1789      1
  1889   1788   1792      1
  1890   1789   2268      1
  1891   1790   1791      1
  1892   1791   1794      1
  1893   1792   2269      1
  1894   1794   1795      1
  1895   1794   1799      1
  1896   1795   1798      1
  1897   1796   1798      1
  1898   1797   1799      1
  1899   1798   1800      1
  1900   1799   1801      1
  1901   1804   1805      1
  1902   1804   1807      1
  1903   1805   1806      1
  1904   1806   1808      1
  1905   1808   1810      1
  1906   1810   1813      1
  1907   1810   2280      1
  1908   1812   1813      1
  1909   1813   1814      1
  1910   1814   2286      1
  1911   1815   1816      1
  1912   1816   1819      1
  1913   1817   1821      1
  1914   1818   2286      1
  1915   1819   1820      1
  1916   1819   1821      1
  1917   1823   1824      1
  1918   1824   1826      1
  1919   1825   2291      1
  1920   1825   2294      1
  1921   1826   1829      1
  1922   1827   1831      1
  1923   1827   1900      1
  1924   1827   1901      1
  1925   1829   1830      1
  1926   1831   1832      1
  1927   1831   1905      1
  1928   1833   1835      1
  1929   1834   1836      1
  1930   1835   1836      1
  1931   1836   1837      1
  1932   1837   1838      1
  1933   1837   1840      1
  1934   1839   1840      1
  1935   1840   1911      1
  1936   1841   1842      1
  1937   1842   2244      1
  1938   1843   1917      1
  1939   1844   1845      1
  1940   1844   1846      1
  1941   1844   2311      1
  1942   1847   1848      1
  1943   1848   1850      1
  1944   1849   1850      1
  1945   1850   1851      1
  1946   1851   1855      1
  1947   1853   2318      1
  1948   1854   1860      1
  1949   1854   1922      1
  1950   1855   1859      1
  1951   1856   2318      1
  1952   1857   2259      1
  1953   1857   2712      1
  1954   1859   1863      1
  1955   1860   1861      1
  1956   1860   1864      1
  1957   1861   1863      1
  1958   1862   1863      1
  1959   1863   1865      1
  1960   1866   2338      1
  1961   1867   1870      1
  1962   1869   1870      1
  1963   1870   1876      1
  1964   1872   1875      1
  1965   1873   1875      1
  1966   1873   1876      1
  1967   1873   2345      1
  1968   1874   1876      1
  1969   1875   1940      1
  1970   1876   2347      1
  1971   1877   1879      1
  1972   1877   1944      1
  1973   1878   1880      1
  1974   1879   1880      1
  1975   1879   1883      1
  1976   1880   1884      1
  1977   1881   1882      1
  1978   1882   1884      1
  1979   1883   1885      1
  1980   1883   1947      1
  1981   1884   1886      1
  1982   1887   1889      1
  1983   1888   1891      1
  1984   1889   1890      1
  1985   1889   1893      1
  1986   1891   1894      1
  1987   1892   1893      1
  1988   1894   1895      1
  1989   1894   2365      1
  1990   1896   1900      1
  1991   1897   1898      1
  1992   1897   1957      1
  1993   1898   1899      1
  1994   1898   1901      1
  1995   1900   1903      1
  1996   1900   2370      1
  1997   1902   1904      1
  1998   1902   1960      1
  1999   1903   1904      1
  2000   1903   1905      1
  2001   1904   1906      1
  2002   1905   1908      1
  2003   1906   1966      1
  2004   1906   2377      1
  2005   1907   1909      1
  2006   1907   1963      1
  2007   1908   2377      1
  2008   1910   1911      1
  2009   1911   1913      1
  2010   1912   1915      1
  2011   1913   1914      1
  2012   1914   1918      1
  2013   1915   1975      1
  2014   1916   2386      1
  2015   1918   1919      1
  2016   1918   2388      1
  2017   1920   1923      1
  2018   1920   1985      1
  2019   1921   1922      1
  2020   1923   2397      1
  2021   1924   1925      1
  2022   1924   1926      1
  2023   1926   1928      1
  2024   1927   1929      1
  2025   1928   1991      1
  2026   1929   1930      1
  2027   1929   2407      1
  2028   1930   1932      1
  2029   1930   1933      1
  2030   1931   1934      1
  2031   1932   1934      1
  2032   1932   1935      1
  2033   1934   1935      1
  2034   1935   1936      1
  2035   1937   1998      1
  2036   1938   1939      1
  2037   1939   1940      1
  2038   1939   1941      1
  2039   1940   2343      1
  2040   1942   2004      1
  2041   1943   1944      1
  2042   1943   1945      1
  2043   1944   1947      1
  2044   1945   1946      1
  2045   1945   1948      1
  2046   1947   1949      1
  2047   1950   1951      1
  2048   1951   1952      1
  2049   1951   1953      1
  2050   1952   2012      1
  2051   1953   1956      1
  2052   1954   1955      1
  2053   1955   2433      1
  2054   1958   1959      1
  2055   1958   1960      1
  2056   1959   1960      1
  2057   1959   1961      1
  2058   1961   1962      1
  2059   1962   1965      1
  2060   1962   2021      1
  2061   1963   1965      1
  2062   1964   2446      1
  2063   1965   1968      1
  2064   1965   1970      1
  2065   1966   1967      1
  2066   1967   1968      1
  2067   1968   1969      1
  2068   1970   1972      1
  2069   1971   1972      1
  2070   1972   1973      1
  2071   1973   1974      1
  2072   1974   1978      1
  2073   1975   1980      1
  2074   1976   2030      1
  2075   1976   2034      1
  2076   1976   2514      1
  2077   1977   1978      1
  2078   1978   1979      1
  2079   1978   1980      1
  2080   1980   1981      1
  2081   1980   1983      1
  2082   1982   1984      1
  2083   1983   1984      1
  2084   1983   1985      1
  2085   1983   1986      1
  2086   1984   1987      1
  2087   1984   2461      1
  2088   1985   1986      1
  2089   1986   1988      1
  2090   1987   1989      1
  2091   1987   2466      1
  2092   1989   2042      1
  2093   1991   1993      1
  2094   1992   2475      1
  2095   1993   1995      1
  2096   1993   1996      1
  2097   1994   1995      1
  2098   1994   2054      1
  2099   1995   1997      1
  2100   1996   1998      1
  2101   1997   2000      1
  2102   1998   1999      1
  2103   2000   2063      1
  2104   2001   2004      1
  2105   2002   2065      1
  2106   2003   2005      1
  2107   2003   2484      1
  2108   2003   2486      1
  2109   2005   2006      1
  2110   2006   2007      1
  2111   2006   2008      1
  2112   2007   2419      1
  2113   2007   2486      1
  2114   2010   2012      1
  2115   2011   2013      1
  2116   2012   2013      1
  2117   2013   2015      1
  2118   2015   2016      1
  2119   2016   2089      1
  2120   2018   2019      1
  2121   2019   2021      1
  2122   2020   2022      1
  2123   2021   2023      1
  2124   2022   2025      1
  2125   2022   2505      1
  2126   2024   2026      1
  2127   2025   2026      1
  2128   2025   2102      1
  2129   2026   2027      1
  2130   2027   2028      1
  2131   2029   2031      1
  2132   2030   2449      1
  2133   2030   2514      1
  2134   2031   2032      1
  2135   2031   2035      1
  2136   2031   2108      1
  2137   2032   2109      1
  2138   2033   2035      1
  2139   2035   2036      1
  2140   2036   2038      1
  2141   2038   2039      1
  2142   2039   2040      1
  2143   2039   2117      1
  2144   2040   2041      1
  2145   2041   2043      1
  2146   2042   2044      1
  2147   2043   2044      1
  2148   2043   2045      1
  2149   2044   2047      1
  2150   2045   2046      1
  2151   2045   2050      1
  2152   2046   2049      1
  2153   2047   2051      1
  2154   2047   2522      1
  2155   2049   2053      1
  2156   2050   2051      1
  2157   2050   2053      1
  2158   2051   2052      1
  2159   2054   2055      1
  2160   2055   2058      1
  2161   2055   2530      1
  2162   2056   2132      1
  2163   2057   2061      1
  2164   2059   2061      1
  2165   2059   2132      1
  2166   2060   2062      1
  2167   2061   2064      1
  2168   2062   2063      1
  2169   2063   2065      1
  2170   2064   2066      1
  2171   2064   2538      1
  2172   2065   2066      1
  2173   2065   2070      1
  2174   2066   2067      1
  2175   2066   2068      1
  2176   2068   2069      1
  2177   2068   2072      1
  2178   2070   2071      1
  2179   2070   2073      1
  2180   2071   2072      1
  2181   2072   2145      1
  2182   2074   2145      1
  2183   2075   2076      1
  2184   2076   2077      1
  2185   2076   2148      1
  2186   2077   2081      1
  2187   2078   2079      1
  2188   2079   2081      1
  2189   2080   2082      1
  2190   2081   2083      1
  2191   2082   2084      1
  2192   2084   2085      1
  2193   2085   2561      1
  2194   2086   2087      1
  2195   2087   2088      1
  2196   2087   2089      1
  2197   2088   2090      1
  2198   2091   2094      1
  2199   2092   2095      1
  2200   2092   2161      1
  2201   2093   2567      1
  2202   2094   2096      1
  2203   2094   2097      1
  2204   2095   2097      1
  2205   2096   2098      1
  2206   2096   2565      1
  2207   2096   2567      1
  2208   2097   2099      1
  2209   2099   2100      1
  2210   2099   2101      1
  2211   2101   2102      1
  2212   2101   2104      1
  2213   2103   2104      1
  2214   2104   2105      1
  2215   2105   2106      1
  2216   2105   2173      1
  2217   2109   2111      1
  2218   2110   2111      1
  2219   2110   2112      1
  2220   2112   2113      1
  2221   2112   2574      1
  2222   2113   2182      1
  2223   2113   2574      1
  2224   2114   2116      1
  2225   2115   2116      1
  2226   2115   2186      1
  2227   2116   2118      1
  2228   2116   2187      1
  2229   2117   2118      1
  2230   2117   2120      1
  2231   2118   2121      1
  2232   2119   2580      1
  2233   2121   2122      1
  2234   2122   2123      1
  2235   2123   2125      1
  2236   2124   2125      1
  2237   2124   2194      1
  2238   2125   2126      1
  2239   2127   2130      1
  2240   2129   2130      1
  2241   2129   2202      1
  2242   2129   2588      1
  2243   2130   2131      1
  2244   2132   2133      1
  2245   2133   2135      1
  2246   2134   2135      1
  2247   2135   2136      1
  2248   2136   2138      1
  2249   2137   2138      1
  2250   2137   2213      1
  2251   2138   2140      1
  2252   2139   2140      1
  2253   2140   2143      1
  2254   2140   2213      1
  2255   2141   2143      1
  2256   2141   2147      1
  2257   2141   2601      1
  2258   2142   2145      1
  2259   2143   2146      1
  2260   2145   2148      1
  2261   2147   2148      1
  2262   2147   2606      1
  2263   2149   2150      1
  2264   2150   2152      1
  2265   2150   2154      1
  2266   2151   2152      1
  2267   2152   2156      1
  2268   2153   2156      1
  2269   2154   2157      1
  2270   2155   2156      1
  2271   2156   2158      1
  2272   2157   2159      1
  2273   2158   2159      1
  2274   2158   2160      1
  2275   2162   2163      1
  2276   2163   2165      1
  2277   2164   2677      1
  2278   2165   2166      1
  2279   2166   2168      1
  2280   2166   2169      1
  2281   2167   2170      1
  2282   2167   2234      1
  2283   2169   2170      1
  2284   2169   2171      1
  2285   2170   2172      1
  2286   2171   2173      1
  2287   2171   2174      1
  2288   2174   2175      1
  2289   2175   2176      1
  2290   2176   2180      1
  2291   2177   2179      1
  2292   2177   2183      1
  2293   2178   2181      1
  2294   2181   2184      1
  2295   2181   2624      1
  2296   2183   2184      1
  2297   2184   2185      1
  2298   2185   2188      1
  2299   2186   2189      1
  2300   2188   2634      1
  2301   2189   2190      1
  2302   2191   2193      1
  2303   2192   2194      1
  2304   2193   2195      1
  2305   2195   2196      1
  2306   2195   2197      1
  2307   2198   2202      1
  2308   2200   2201      1
  2309   2200   2644      1
  2310   2200   2648      1
  2311   2201   2202      1
  2312   2201   2204      1
  2313   2202   2206      1
  2314   2203   2204      1
  2315   2204   2207      1
  2316   2205   2648      1
  2317   2207   2208      1
  2318   2209   2210      1
  2319   2210   2211      1
  2320   2210   2272      1
  2321   2212   2213      1
  2322   2214   2215      1
  2323   2215   2216      1
  2324   2215   2217      1
  2325   2217   2218      1
  2326   2219   2221      1
  2327   2220   2221      1
  2328   2221   2222      1
  2329   2223   2670      1
  2330   2224   2228      1
  2331   2225   2228      1
  2332   2226   2228      1
  2333   2226   2229      1
  2334   2226   2289      1
  2335   2227   2229      1
  2336   2229   2230      1
  2337   2230   2234      1
  2338   2231   2233      1
  2339   2232   2233      1
  2340   2232   2681      1
  2341   2234   2235      1
  2342   2236   2237      1
  2343   2236   2238      1
  2344   2237   2239      1
  2345   2238   2240      1
  2346   2239   2241      1
  2347   2240   2241      1
  2348   2241   2242      1
  2349   2243   2246      1
  2350   2243   2691      1
  2351   2243   2693      1
  2352   2245   2247      1
  2353   2246   2247      1
  2354   2246   2702      1
  2355   2247   2248      1
  2356   2248   2249      1
  2357   2248   2250      1
  2358   2249   2252      1
  2359   2249   2702      1
  2360   2250   2251      1
  2361   2250   2253      1
  2362   2252   2254      1
  2363   2252   2256      1
  2364   2252   2709      1
  2365   2253   2254      1
  2366   2253   2255      1
  2367   2254   2257      1
  2368   2257   2712      1
  2369   2260   2720      1
  2370   2261   2263      1
  2371   2262   2263      1
  2372   2263   2264      1
  2373   2263   2267      1
  2374   2265   2266      1
  2375   2265   2720      1
  2376   2265   2725      1
  2377   2266   2267      1
  2378   2267   2268      1
  2379   2268   2269      1
  2380   2269   2270      1
  2381   2270   2271      1
  2382   2271   2273      1
  2383   2272   2733      1
  2384   2273   2734      1
  2385   2274   2275      1
  2386   2275   2276      1
  2387   2275   2277      1
  2388   2276   2743      1
  2389   2278   2742      1
  2390   2279   2282      1
  2391   2282   2283      1
  2392   2282   2284      1
  2393   2283   2284      1
  2394   2284   2285      1
  2395   2285   2287      1
  2396   2286   2287      1
  2397   2291   2292      1
  2398   2293   2370      1
  2399   2295   2297      1
  2400   2296   2297      1
  2401   2297   2298      1
  2402   2297   2301      1
  2403   2298   2300      1
  2404   2298   2302      1
  2405   2298   2767      1
  2406   2299   2301      1
  2407   2300   2378      1
  2408   2301   2303      1
  2409   2302   2303      1
  2410   2302   2304      1
  2411   2303   2305      1
  2412   2304   2771      1
  2413   2305   2307      1
  2414   2306   2307      1
  2415   2306   2382      1
  2416   2307   2308      1
  2417   2307   2310      1
  2418   2309   2310      1
  2419   2309   2778      1
  2420   2310   2312      1
  2421   2311   2312      1
  2422   2311   2388      1
  2423   2312   2314      1
  2424   2313   2314      1
  2425   2314   2315      1
  2426   2315   2316      1
  2427   2315   2391      1
  2428   2316   2318      1
  2429   2316   2319      1
  2430   2317   2319      1
  2431   2318   2396      1
  2432   2319   2321      1
  2433   2320   2324      1
  2434   2321   2324      1
  2435   2321   2325      1
  2436   2322   2325      1
  2437   2323   2325      1
  2438   2324   2328      1
  2439   2325   2331      1
  2440   2326   2327      1
  2441   2327   2329      1
  2442   2327   2406      1
  2443   2328   2333      1
  2444   2328   2795      1
  2445   2329   2332      1
  2446   2329   2407      1
  2447   2330   2331      1
  2448   2330   2333      1
  2449   2331   2332      1
  2450   2332   2336      1
  2451   2333   2334      1
  2452   2333   2335      1
  2453   2336   2338      1
  2454   2336   2410      1
  2455   2337   2338      1
  2456   2338   2340      1
  2457   2339   2341      1
  2458   2342   2344      1
  2459   2343   2345      1
  2460   2343   2414      1
  2461   2344   2345      1
  2462   2344   2346      1
  2463   2346   2349      1
  2464   2347   2348      1
  2465   2349   2350      1
  2466   2349   2807      1
  2467   2351   2744      1
  2468   2352   2353      1
  2469   2352   2354      1
  2470   2353   2355      1
  2471   2354   2356      1
  2472   2354   2357      1
  2473   2355   2357      1
  2474   2356   2359      1
  2475   2356   2424      1
  2476   2357   2361      1
  2477   2358   2815      1
  2478   2360   2361      1
  2479   2361   2362      1
  2480   2362   2363      1
  2481   2363   2364      1
  2482   2363   2365      1
  2483   2364   2431      1
  2484   2366   2367      1
  2485   2366   2751      1
  2486   2367   2827      1
  2487   2368   2370      1
  2488   2369   2370      1
  2489   2371   2373      1
  2490   2371   2836      1
  2491   2371   2837      1
  2492   2372   2373      1
  2493   2373   2374      1
  2494   2374   2444      1
  2495   2374   2445      1
  2496   2375   2377      1
  2497   2376   2378      1
  2498   2377   2379      1
  2499   2378   2381      1
  2500   2380   2382      1
  2501   2381   2382      1
  2502   2381   2385      1
  2503   2381   2846      1
  2504   2383   2454      1
  2505   2384   2386      1
  2506   2384   2454      1
  2507   2387   2389      1
  2508   2388   2391      1
  2509   2389   2392      1
  2510   2389   2924      1
  2511   2390   2392      1
  2512   2391   2393      1
  2513   2392   2394      1
  2514   2394   2395      1
  2515   2395   2398      1
  2516   2395   2467      1
  2517   2397   2398      1
  2518   2397   2400      1
  2519   2398   2401      1
  2520   2399   2857      1
  2521   2401   2403      1
  2522   2401   2404      1
  2523   2402   2403      1
  2524   2403   2406      1
  2525   2404   2405      1
  2526   2404   2408      1
  2527   2406   2862      1
  2528   2408   2477      1
  2529   2409   2477      1
  2530   2410   2412      1
  2531   2411   2412      1
  2532   2411   2413      1
  2533   2412   2414      1
  2534   2414   2416      1
  2535   2415   2416      1
  2536   2416   2417      1
  2537   2417   2419      1
  2538   2418   2488      1
  2539   2418   2947      1
  2540   2419   2420      1
  2541   2420   2421      1
  2542   2420   2488      1
  2543   2422   2423      1
  2544   2423   2425      1
  2545   2423   2489      1
  2546   2425   2427      1
  2547   2426   2427      1
  2548   2427   2428      1
  2549   2428   2432      1
  2550   2428   2492      1
  2551   2429   2492      1
  2552   2430   2886      1
  2553   2430   2891      1
  2554   2432   2433      1
  2555   2432   2435      1
  2556   2434   2435      1
  2557   2436   2440      1
  2558   2437   2438      1
  2559   2438   2439      1
  2560   2438   2441      1
  2561   2440   2441      1
  2562   2441   2442      1
  2563   2441   2443      1
  2564   2442   2502      1
  2565   2444   2836      1
  2566   2444   2906      1
  2567   2446   2447      1
  2568   2446   2449      1
  2569   2448   2908      1
  2570   2449   2450      1
  2571   2450   2452      1
  2572   2450   2453      1
  2573   2451   2452      1
  2574   2452   2455      1
  2575   2454   2455      1
  2576   2455   2457      1
  2577   2456   2457      1
  2578   2457   2917      1
  2579   2458   2461      1
  2580   2459   2462      1
  2581   2460   2461      1
  2582   2462   2463      1
  2583   2462   2517      1
  2584   2463   2464      1
  2585   2463   2465      1
  2586   2464   2466      1
  2587   2464   2467      1
  2588   2466   2469      1
  2589   2467   2468      1
  2590   2469   2472      1
  2591   2469   2519      1
  2592   2470   2857      1
  2593   2471   2472      1
  2594   2472   2474      1
  2595   2473   2474      1
  2596   2473   2478      1
  2597   2473   2526      1
  2598   2474   2475      1
  2599   2475   2476      1
  2600   2476   2477      1
  2601   2476   2478      1
  2602   2479   2480      1
  2603   2480   2481      1
  2604   2480   2539      1
  2605   2481   2484      1
  2606   2482   2485      1
  2607   2483   2940      1
  2608   2485   2486      1
  2609   2485   2488      1
  2610   2487   2945      1
  2611   2489   2490      1
  2612   2489   2952      1
  2613   2491   2494      1
  2614   2491   2556      1
  2615   2491   2560      1
  2616   2492   2493      1
  2617   2493   2495      1
  2618   2493   2958      1
  2619   2494   2495      1
  2620   2495   2496      1
  2621   2497   2498      1
  2622   2497   2499      1
  2623   2499   2500      1
  2624   2499   2501      1
  2625   2500   2564      1
  2626   2500   2566      1
  2627   2501   2502      1
  2628   2501   2503      1
  2629   2502   2504      1
  2630   2503   2505      1
  2631   2503   2507      1
  2632   2504   2506      1
  2633   2504   2507      1
  2634   2505   2508      1
  2635   2506   2907      1
  2636   2507   2509      1
  2637   2509   2510      1
  2638   2510   2511      1
  2639   2511   2512      1
  2640   2511   2513      1
  2641   2512   2571      1
  2642   2514   2515      1
  2643   2515   2516      1
  2644   2515   2517      1
  2645   2518   2519      1
  2646   2519   2522      1
  2647   2520   2522      1
  2648   2521   2523      1
  2649   2521   2524      1
  2650   2521   2994      1
  2651   2525   2584      1
  2652   2527   2530      1
  2653   2528   2531      1
  2654   2529   2532      1
  2655   2530   2536      1
  2656   2531   2537      1
  2657   2531   2934      1
  2658   2532   2533      1
  2659   2532   2535      1
  2660   2534   2537      1
  2661   2535   2536      1
  2662   2535   2590      1
  2663   2536   2538      1
  2664   2537   2539      1
  2665   2538   2541      1
  2666   2539   2540      1
  2667   2541   2542      1
  2668   2541   2594      1
  2669   2543   2544      1
  2670   2544   2545      1
  2671   2544   2546      1
  2672   2545   2547      1
  2673   2545   2600      1
  2674   2546   2549      1
  2675   2546   2550      1
  2676   2547   2548      1
  2677   2547   2602      1
  2678   2548   2550      1
  2679   2548   3001      1
  2680   2550   2551      1
  2681   2552   2555      1
  2682   2553   2607      1
  2683   2554   2556      1
  2684   2555   2558      1
  2685   2555   3074      1
  2686   2557   2558      1
  2687   2558   2559      1
  2688   2561   2562      1
  2689   2563   2564      1
  2690   2564   2565      1
  2691   2566   2969      1
  2692   2567   2616      1
  2693   2568   2569      1
  2694   2568   3021      1
  2695   2569   2570      1
  2696   2571   2572      1
  2697   2573   2575      1
  2698   2574   2576      1
  2699   2574   2627      1
  2700   2575   2577      1
  2701   2575   3033      1
  2702   2576   2577      1
  2703   2576   2578      1
  2704   2577   2579      1
  2705   2578   2580      1
  2706   2579   2628      1
  2707   2579   3040      1
  2708   2580   2581      1
  2709   2581   2583      1
  2710   2582   2583      1
  2711   2583   2584      1
  2712   2584   2585      1
  2713   2585   2587      1
  2714   2586   2587      1
  2715   2587   2588      1
  2716   2588   2642      1
  2717   2589   2590      1
  2718   2589   2591      1
  2719   2589   2592      1
  2720   2590   2594      1
  2721   2592   2595      1
  2722   2592   3054      1
  2723   2593   2595      1
  2724   2593   2650      1
  2725   2593   3121      1
  2726   2594   2596      1
  2727   2595   3057      1
  2728   2597   2598      1
  2729   2598   2599      1
  2730   2598   3057      1
  2731   2599   2603      1
  2732   2599   3061      1
  2733   2603   2605      1
  2734   2603   2658      1
  2735   2604   2607      1
  2736   2605   2608      1
  2737   2605   2661      1
  2738   2605   3069      1
  2739   2606   2607      1
  2740   2609   2667      1
  2741   2610   3076      1
  2742   2611   2669      1
  2743   2612   2669      1
  2744   2613   2615      1
  2745   2613   2674      1
  2746   2614   2615      1
  2747   2614   2616      1
  2748   2616   2618      1
  2749   2617   2684      1
  2750   2619   2620      1
  2751   2619   2621      1
  2752   2621   2622      1
  2753   2621   3090      1
  2754   2622   2684      1
  2755   2622   2688      1
  2756   2623   2693      1
  2757   2624   2625      1
  2758   2624   2698      1
  2759   2626   2630      1
  2760   2628   2629      1
  2761   2629   2630      1
  2762   2629   2631      1
  2763   2630   2632      1
  2764   2631   2633      1
  2765   2631   3105      1
  2766   2632   2634      1
  2767   2632   2635      1
  2768   2633   2635      1
  2769   2633   2637      1
  2770   2634   2638      1
  2771   2635   2636      1
  2772   2635   2640      1
  2773   2639   2640      1
  2774   2640   2641      1
  2775   2642   2644      1
  2776   2643   2645      1
  2777   2644   2645      1
  2778   2645   2646      1
  2779   2645   2647      1
  2780   2647   2649      1
  2781   2647   2726      1
  2782   2648   2649      1
  2783   2649   2731      1
  2784   2651   2652      1
  2785   2651   2731      1
  2786   2652   2653      1
  2787   2652   3182      1
  2788   2653   2654      1
  2789   2653   3120      1
  2790   2654   2655      1
  2791   2654   2656      1
  2792   2656   2657      1
  2793   2656   3129      1
  2794   2659   2662      1
  2795   2660   2662      1
  2796   2661   2662      1
  2797   2661   3134      1
  2798   2662   2663      1
  2799   2663   2665      1
  2800   2663   2667      1
  2801   2664   2665      1
  2802   2665   2666      1
  2803   2666   2749      1
  2804   2667   2668      1
  2805   2669   2670      1
  2806   2671   2674      1
  2807   2672   2673      1
  2808   2672   2676      1
  2809   2674   2677      1
  2810   2674   2678      1
  2811   2675   2676      1
  2812   2676   2680      1
  2813   2677   2678      1
  2814   2678   2682      1
  2815   2679   3144      1
  2816   2680   2683      1
  2817   2682   2683      1
  2818   2682   2684      1
  2819   2683   2687      1
  2820   2684   2688      1
  2821   2685   3148      1
  2822   2686   2687      1
  2823   2687   2689      1
  2824   2688   2690      1
  2825   2689   2690      1
  2826   2689   2691      1
  2827   2690   2693      1
  2828   2691   2694      1
  2829   2692   2696      1
  2830   2693   2698      1
  2831   2694   2697      1
  2832   2695   2696      1
  2833   2696   2700      1
  2834   2698   2699      1
  2835   2699   2700      1
  2836   2700   2704      1
  2837   2700   3157      1
  2838   2701   2703      1
  2839   2702   2703      1
  2840   2703   2705      1
  2841   2703   2706      1
  2842   2704   2705      1
  2843   2704   3161      1
  2844   2705   2707      1
  2845   2707   2708      1
  2846   2707   2709      1
  2847   2708   2713      1
  2848   2709   2710      1
  2849   2710   2711      1
  2850   2710   2712      1
  2851   2713   2714      1
  2852   2713   2716      1
  2853   2716   2718      1
  2854   2716   3169      1
  2855   2717   3172      1
  2856   2718   2719      1
  2857   2718   2723      1
  2858   2720   2722      1
  2859   2721   2722      1
  2860   2723   2724      1
  2861   2724   2726      1
  2862   2725   2727      1
  2863   2726   2728      1
  2864   2727   2729      1
  2865   2729   2732      1
  2866   2730   3184      1
  2867   2731   2733      1
  2868   2732   2734      1
  2869   2732   2735      1
  2870   2733   2734      1
  2871   2736   2737      1
  2872   2737   2738      1
  2873   2737   3192      1
  2874   2738   2739      1
  2875   2738   2740      1
  2876   2740   2742      1
  2877   2741   3192      1
  2878   2742   2745      1
  2879   2743   2745      1
  2880   2744   2746      1
  2881   2744   3194      1
  2882   2745   2747      1
  2883   2746   2748      1
  2884   2746   3196      1
  2885   2747   2748      1
  2886   2748   2749      1
  2887   2749   2750      1
  2888   2750   2752      1
  2889   2752   2753      1
  2890   2752   2754      1
  2891   2754   2755      1
  2892   2756   2758      1
  2893   2757   2759      1
  2894   2758   2762      1
  2895   2759   2760      1
  2896   2759   2763      1
  2897   2760   2833      1
  2898   2760   2837      1
  2899   2761   2765      1
  2900   2762   2763      1
  2901   2762   2764      1
  2902   2763   2766      1
  2903   2766   2768      1
  2904   2766   2769      1
  2905   2770   2771      1
  2906   2771   2772      1
  2907   2773   2777      1
  2908   2773   2846      1
  2909   2773   2847      1
  2910   2774   2776      1
  2911   2775   2778      1
  2912   2776   2781      1
  2913   2778   2782      1
  2914   2779   2783      1
  2915   2780   2849      1
  2916   2781   2782      1
  2917   2781   2784      1
  2918   2782   2785      1
  2919   2783   2784      1
  2920   2784   3164      1
  2921   2785   2786      1
  2922   2788   2789      1
  2923   2788   2790      1
  2924   2790   2791      1
  2925   2791   2792      1
  2926   2793   2794      1
  2927   2794   2796      1
  2928   2796   2798      1
  2929   2797   2799      1
  2930   2798   2801      1
  2931   2799   2802      1
  2932   2799   2867      1
  2933   2800   2801      1
  2934   2801   2802      1
  2935   2802   2804      1
  2936   2804   2805      1
  2937   2805   2874      1
  2938   2806   2809      1
  2939   2808   2811      1
  2940   2809   2812      1
  2941   2809   2813      1
  2942   2811   2812      1
  2943   2812   2885      1
  2944   2813   2814      1
  2945   2814   2815      1
  2946   2815   2886      1
  2947   2817   2818      1
  2948   2818   2820      1
  2949   2819   2821      1
  2950   2820   2824      1
  2951   2821   2823      1
  2952   2821   2892      1
  2953   2824   2825      1
  2954   2824   2827      1
  2955   2828   2898      1
  2956   2829   2830      1
  2957   2829   2831      1
  2958   2831   2832      1
  2959   2832   2835      1
  2960   2834   2835      1
  2961   2835   2838      1
  2962   2838   2839      1
  2963   2839   2840      1
  2964   2840   2841      1
  2965   2840   2842      1
  2966   2841   2845      1
  2967   2841   2912      1
  2968   2843   2846      1
  2969   2845   2916      1
  2970   2847   2849      1
  2971   2848   2850      1
  2972   2850   2851      1
  2973   2850   2920      1
  2974   2851   2852      1
  2975   2851   2854      1
  2976   2853   2855      1
  2977   2854   2855      1
  2978   2855   2856      1
  2979   2856   2858      1
  2980   2857   2859      1
  2981   2857   2926      1
  2982   2860   2861      1
  2983   2862   2863      1
  2984   2864   2866      1
  2985   2865   2866      1
  2986   2865   2935      1
  2987   2866   2868      1
  2988   2868   2869      1
  2989   2868   2871      1
  2990   2870   2871      1
  2991   2871   2873      1
  2992   2872   2873      1
  2993   2872   2942      1
  2994   2873   2875      1
  2995   2874   2876      1
  2996   2874   2878      1
  2997   2877   2878      1
  2998   2878   2879      1
  2999   2878   2880      1
  3000   2881   2882      1
  3001   2881   2948      1
  3002   2882   2884      1
  3003   2882   2954      1
  3004   2883   2954      1
  3005   2884   2885      1
  3006   2886   2891      1
  3007   2887   2890      1
  3008   2887   2962      1
  3009   2888   2890      1
  3010   2890   2893      1
  3011   2891   2892      1
  3012   2892   2895      1
  3013   2893   2894      1
  3014   2896   2899      1
  3015   2896   2901      1
  3016   2897   2900      1
  3017   2898   2901      1
  3018   2900   2902      1
  3019   2901   2903      1
  3020   2904   2905      1
  3021   2906   2908      1
  3022   2907   2908      1
  3023   2907   2909      1
  3024   2909   2910      1
  3025   2909   2975      1
  3026   2910   2911      1
  3027   2910   2913      1
  3028   2911   2912      1
  3029   2913   2914      1
  3030   2914   2976      1
  3031   2915   2918      1
  3032   2916   2917      1
  3033   2916   2918      1
  3034   2918   2920      1
  3035   2919   2921      1
  3036   2919   2976      1
  3037   2919   2981      1
  3038   2920   2922      1
  3039   2923   2925      1
  3040   2924   2926      1
  3041   2925   2984      1
  3042   2925   2990      1
  3043   2926   2927      1
  3044   2928   2929      1
  3045   2929   2930      1
  3046   2929   2990      1
  3047   2930   2931      1
  3048   2930   2995      1
  3049   2932   2933      1
  3050   2934   2936      1
  3051   2935   2937      1
  3052   2936   2937      1
  3053   2936   2938      1
  3054   2937   2940      1
  3055   2939   2941      1
  3056   2940   2942      1
  3057   2942   2944      1
  3058   2943   2945      1
  3059   2945   2946      1
  3060   2946   2951      1
  3061   2946   3000      1
  3062   2947   2952      1
  3063   2948   2950      1
  3064   2949   2953      1
  3065   2950   2953      1
  3066   2950   2954      1
  3067   2952   2953      1
  3068   2953   2955      1
  3069   2956   2957      1
  3070   2957   2959      1
  3071   2957   2961      1
  3072   2957   2962      1
  3073   2960   2962      1
  3074   2962   2964      1
  3075   2963   2965      1
  3076   2964   2965      1
  3077   2966   2967      1
  3078   2967   2968      1
  3079   2968   2970      1
  3080   2968   3010      1
  3081   2969   2971      1
  3082   2970   2971      1
  3083   2970   2972      1
  3084   2971   2973      1
  3085   2972   2974      1
  3086   2972   3015      1
  3087   2977   2980      1
  3088   2978   2983      1
  3089   2979   2982      1
  3090   2980   2983      1
  3091   2980   2984      1
  3092   2981   2987      1
  3093   2982   2985      1
  3094   2982   2986      1
  3095   2983   2985      1
  3096   2986   2987      1
  3097   2986   2988      1
  3098   2989   2991      1
  3099   2990   2991      1
  3100   2991   2994      1
  3101   2992   2993      1
  3102   2992   3041      1
  3103   2992   3043      1
  3104   2994   2995      1
  3105   2995   2996      1
  3106   2998   2999      1
  3107   2998   3000      1
  3108   3000   3001      1
  3109   3002   3003      1
  3110   3003   3005      1
  3111   3003   3006      1
  3112   3004   3006      1
  3113   3005   3082      1
  3114   3006   3008      1
  3115   3007   3009      1
  3116   3011   3012      1
  3117   3012   3013      1
  3118   3012   3085      1
  3119   3013   3087      1
  3120   3014   3015      1
  3121   3015   3017      1
  3122   3016   3019      1
  3123   3018   3019      1
  3124   3018   3020      1
  3125   3018   3087      1
  3126   3019   3021      1
  3127   3020   3023      1
  3128   3021   3022      1
  3129   3021   3025      1
  3130   3023   3025      1
  3131   3023   3097      1
  3132   3024   3025      1
  3133   3025   3026      1
  3134   3027   3032      1
  3135   3028   3031      1
  3136   3029   3031      1
  3137   3030   3033      1
  3138   3031   3034      1
  3139   3031   3035      1
  3140   3032   3037      1
  3141   3032   3106      1
  3142   3033   3036      1
  3143   3035   3036      1
  3144   3035   3041      1
  3145   3036   3040      1
  3146   3036   3043      1
  3147   3037   3040      1
  3148   3037   3110      1
  3149   3038   3039      1
  3150   3038   3106      1
  3151   3038   3110      1
  3152   3040   3044      1
  3153   3041   3042      1
  3154   3043   3045      1
  3155   3046   3110      1
  3156   3047   3050      1
  3157   3047   3111      1
  3158   3048   3049      1
  3159   3049   3051      1
  3160   3050   3051      1
  3161   3053   3055      1
  3162   3056   3118      1
  3163   3056   3125      1
  3164   3057   3058      1
  3165   3059   3060      1
  3166   3060   3062      1
  3167   3060   3128      1
  3168   3062   3064      1
  3169   3062   3067      1
  3170   3063   3064      1
  3171   3064   3065      1
  3172   3065   3066      1
  3173   3067   3068      1
  3174   3067   3069      1
  3175   3069   3071      1
  3176   3070   3072      1
  3177   3071   3072      1
  3178   3071   3134      1
  3179   3073   3074      1
  3180   3073   3076      1
  3181   3074   3076      1
  3182   3077   3078      1
  3183   3077   3081      1
  3184   3079   3080      1
  3185   3079   3137      1
  3186   3082   3083      1
  3187   3086   3088      1
  3188   3087   3089      1
  3189   3088   3089      1
  3190   3088   3090      1
  3191   3090   3144      1
  3192   3091   3096      1
  3193   3092   3094      1
  3194   3093   3098      1
  3195   3094   3096      1
  3196   3095   3097      1
  3197   3096   3099      1
  3198   3097   3100      1
  3199   3098   3100      1
  3200   3099   3102      1
  3201   3099   3155      1
  3202   3100   3101      1
  3203   3104   3105      1
  3204   3105   3108      1
  3205   3106   3107      1
  3206   3107   3109      1
  3207   3111   3112      1
  3208   3112   3114      1
  3209   3113   3170      1
  3210   3115   3116      1
  3211   3116   3171      1
  3212   3116   3174      1
  3213   3117   3120      1
  3214   3119   3124      1
  3215   3120   3122      1
  3216   3121   3122      1
  3217   3122   3125      1
  3218   3123   3124      1
  3219   3124   3127      1
  3220   3125   3127      1
  3221   3125   3128      1
  3222   3126   3127      1
  3223   3127   3130      1
  3224   3128   3129      1
  3225   3131   3132      1
  3226   3134   3135      1
  3227   3136   3138      1
  3228   3136   3200      1
  3229   3137   3139      1
  3230   3138   3139      1
  3231   3141   3142      1
  3232   3143   3147      1
  3233   3144   3145      1
  3234   3145   3146      1
  3235   3145   3148      1
  3236   3147   3148      1
  3237   3147   3149      1
  3238   3149   3153      1
  3239   3150   3152      1
  3240   3151   3152      1
  3241   3152   3153      1
  3242   3153   3156      1
  3243   3154   3155      1
  3244   3155   3158      1
  3245   3157   3158      1
  3246   3157   3160      1
  3247   3158   3159      1
  3248   3161   3163      1
  3249   3162   3163      1
  3250   3163   3165      1
  3251   3165   3167      1
  3252   3165   3169      1
  3253   3166   3167      1
  3254   3166   3168      1
  3255   3167   3170      1
  3256   3169   3171      1
  3257   3170   3171      1
  3258   3173   3175      1
  3259   3174   3175      1
  3260   3175   3178      1
  3261   3177   3178      1
  3262   3178   3179      1
  3263   3179   3180      1
  3264   3179   3181      1
  3265   3181   3183      1
  3266   3183   3185      1
  3267   3185   3186      1
  3268   3187   3189      1
  3269   3187   3191      1
  3270   3188   3189      1
  3271   3189   3190      1
  3272   3189   3191      1
  3273   3191   3192      1
  3274   3194   3195      1
  3275   3195   3197      1
  3276   3196   3197      1
  3277   3197   3198      1
  3278   3198   3200      1
  3279   3201   3202     du
  3280   3202   3203     du
  3281   3203   3204     du
  3282   3204   3201     du
  3283   3205   3206     du
  3284   3206   3207     du
  3285   3207   3208     du
  3286   3208   3205     du
  3287   3204   3208     du
  3288   3205   3201     du
  3289   3203   3207     du
  3290   3206   3202     du
