@<TRIPOS>MOLECULE
LAMMPS data file via write_data, version 29 Oct 2020, timestep = 100 > lmp2SYBYLmol2 v3.0 / 24 May 2023 w/remove_PBC_bonds=True
  2893 3090    0    0    0
SMALL
NO_CHARGES
****
Energy = 0

@<TRIPOS>ATOM
      1 C          -15.1678   -11.7081   -12.9499 C       6      r6    -0.0108
      2 C          -14.8681   -13.4090   -14.5000 C       0      r0    -0.0046
      3 C          -14.8986   -12.3004   -15.4949 C       0      r0    -0.0046
      4 C          -14.7682   -13.0266   -13.0610 C       6      r6     0.0109
      5 C          -14.3045   -10.9723   -11.8919 C       6      r6    -0.0013
      6 C          -13.3447   -13.5634   -12.5040 C       6      r6    -0.0180
      7 C          -13.5121   -12.2025   -15.5836 C       0      r0    -0.0004
      8 C          -12.8650   -12.9794   -11.3088 C       6      r6    -0.0096
      9 C          -11.2762   -13.2453   -15.0998 C       0      r0    -0.0196
     10 H          -10.4221   -11.1309   -14.4961 H       0      r0    -0.0139
     11 H          -10.6810   -12.9504   -14.1939 H       0      r0     0.0184
     12 C          -10.4449   -10.4779   -15.4339 C       0      r0     0.3532
     13 H           -9.0436   -13.9757   -14.2322 H       0      r0     0.0207
     14 C           -6.8321   -10.3109   -13.6454 C       0      r0    -0.0308
     15 C           -6.1360   -11.2593   -15.0367 C       0      r0     0.0124
     16 H           -6.1364   -10.9924   -12.9902 H       0      r0     0.0239
     17 H           -5.8113   -13.2616   -13.9286 H       0      r0     0.0232
     18 C           -5.5215   -12.5356   -14.7100 C       0      r0    -0.0178
     19 H           -3.6800   -14.2583   -13.0697 H       0      r0     0.0274
     20 C           -4.1370   -12.8722   -14.9746 C       0      r0     0.0336
     21 C           -3.5018   -14.1217   -14.0209 C       0      r0    -0.0171
     22 O           -3.1173   -11.2609   -12.0097 O       3      r3    -0.4468
     23 C           -1.8985   -13.8175   -14.2760 C       0      r0    -0.0089
     24 H           -1.8853   -12.4684   -13.0358 H       0      r0     0.1074
     25 O           -1.0513   -10.5457   -14.8016 O       6      r6    -0.4527
     26 C           -1.1339   -12.8946   -13.5933 C       0      r0     0.0079
     27 C            0.3332   -12.6490   -14.1144 C       0      r0     0.0314
     28 C            0.3416   -10.2728   -14.1917 C       6      r6     0.2117
     29 H            0.8558   -12.6761   -14.8596 H       0      r0     0.0487
     30 C            0.9760   -11.4587   -13.6691 C       0      r0    -0.0395
     31 H            2.0681   -11.1474   -13.6429 H       0      r0     0.0242
     32 C            2.7275   -10.7131   -11.4612 C       0      r0    -0.0040
     33 C            2.9925   -12.0381   -11.6081 C       0      r0    -0.0109
     34 O            3.1205   -14.0859   -15.1574 O       5      r5    -0.4821
     35 H            3.8469   -11.4445   -14.2637 H       0      r0     0.0384
     36 C            4.3770   -12.6003   -11.3645 C       0      r0     0.0143
     37 C            4.3951   -13.0106   -15.5844 C       5      r5     0.1784
     38 C            4.6053   -11.8385   -15.0590 C       0      r0    -0.0539
     39 C            5.4405   -10.7444   -14.4857 C       0      r0    -0.0508
     40 H            5.3459   -10.7813   -13.4706 H       0      r0     0.0196
     41 C            5.5540   -12.2920   -12.1228 C       0      r0    -0.0230
     42 H            5.4416   -12.3748   -13.2095 H       0      r0     0.0291
     43 C            6.3315   -11.2975   -11.7097 C       0      r0    -0.0096
     44 H            6.6012   -10.8830   -14.5687 H       0      r0     0.0233
     45 H            8.2889   -10.0046   -13.9577 H       0      r0     0.0156
     46 C            8.6550   -13.8322   -14.6101 C       6      r6    -0.0007
     47 C            8.7216   -10.4962   -11.7372 C       7      r7    -0.0075
     48 C            8.8664   -11.9320   -15.8632 C       6      r6    -0.0068
     49 C            9.5096   -13.0167   -15.3381 C       6      r6     0.0027
     50 C            9.9388    14.2477   -11.3756 C       6      r6     0.0012
     51 C           10.7569   -12.7683   -14.5964 C       6      r6    -0.0176
     52 C           11.0485   -13.6693   -13.5936 C       6      r6     0.0015
     53 H           11.6820   -12.3084   -15.1070 H       0      r0     0.0288
     54 C           12.3609   -13.5632   -11.3960 C       6      r6     0.0027
     55 C           12.5418   -13.8475   -13.0490 C       6      r6    -0.0170
     56 C           13.3684   -12.9001   -13.8026 C       6      r6    -0.0002
     57 C           14.2511   -12.0749   -12.7466 C       6      r6     0.0072
     58 C           15.5262   -11.4491   -13.2177 C       0      r0    -0.0056
     59 C          -15.4713    -6.4649   -12.6067 C       7      r7    -0.0242
     60 H          -15.1884    -8.8070   -11.9826 H       0      r0     0.0167
     61 H          -15.0226    -9.6527   -15.0692 H       0      r0     0.0196
     62 H          -14.8396    -7.1282   -13.3746 H       0      r0     0.0191
     63 C          -14.2007    -9.5111   -11.8996 C       6      r6    -0.0157
     64 C          -11.9934    -6.3162   -14.5973 C       0      r0    -0.0202
     65 C          -10.6261    -6.4714   -14.8416 C       0      r0     0.0155
     66 O           -9.4811    -9.7522   -15.5077 O       0      r0    -0.5152
     67 C           -9.4515    -6.4186   -13.7746 C       0      r0    -0.0160
     68 H           -9.0270    -7.4120   -13.5142 H       0      r0     0.0438
     69 H           -7.7323   -10.9218   -13.7273 H       0      r0     0.0516
     70 H           -7.6162    -5.8513   -11.8349 H       0      r0     0.0234
     71 C           -6.8556    -7.6616   -14.6149 C       0      r0    -0.0054
     72 C           -6.8128    -8.9007   -14.1055 C       0      r0     0.0354
     73 C           -6.4357    -6.3903   -13.7829 C       0      r0    -0.0045
     74 C           -4.8610    -6.3326   -13.6547 C       0      r0     0.0015
     75 H           -4.7675   -10.1236   -12.2545 H       0      r0     0.0827
     76 C           -4.0716    -6.6798   -14.8521 C       0      r0    -0.0465
     77 H           -3.5597    -9.3297   -15.2047 H       0      r0     0.0646
     78 H           -3.9529    -7.6807   -12.4108 H       0      r0     0.0409
     79 C           -2.6975    -8.4769   -15.1396 C       5      r5    -0.1042
     80 C           -2.5999    -7.0716   -14.9752 C       5      r5     0.2354
     81 O           -1.5269    -6.4429   -14.1872 O       5      r5    -0.4611
     82 C           -1.4686    -8.9583   -14.8224 C       6      r6     0.1852
     83 C           -0.5364    -7.7959   -14.4557 C       6      r6     0.1174
     84 H           -0.6061    -9.0076   -12.5719 H       0      r0     0.0424
     85 C           -0.2961    -8.7265   -11.5455 C       0      r0    -0.0002
     86 C            0.8872    -7.9601   -14.8459 C       6      r6    -0.0102
     87 C            1.2555    -9.4111   -14.7503 C       6      r6    -0.0728
     88 C            1.7449    -7.0767   -15.7335 C       0      r0    -0.0114
     89 H            2.3264    -9.2203   -14.9750 H       0      r0     0.0274
     90 H            2.9075    -8.6024   -12.6499 H       0      r0     0.0164
     91 C            2.8368    -9.1971   -11.7394 C       0      r0    -0.0261
     92 H            4.1988    -6.9901   -11.6709 H       0      r0     0.0216
     93 H            5.2198    -9.7422   -14.8679 H       0      r0     0.0358
     94 C            7.2106   -10.2310   -11.6466 C       0      r0    -0.0058
     95 C            8.6702    -6.5451   -14.3538 C       6      r6     0.1059
     96 C            9.0164    -7.8670   -14.2681 C       6      r6    -0.0623
     97 C            9.0940   -10.0124   -15.0530 C       0      r0    -0.0715
     98 C            9.8124    -6.3992   -15.4183 C       6      r6    -0.1290
     99 C            9.8179    -8.8151   -14.8297 C       6      r6     0.2460
    100 C            9.9584    -9.8348   -12.0720 C       7      r7    -0.0035
    101 H           10.1354    -9.1232   -12.9473 H       0      r0     0.0410
    102 O           10.9982    -8.4753   -15.7737 O       6      r6    -0.5225
    103 O           12.3385    -7.6970   -12.0780 O       0      r0    -0.4044
    104 C           12.3385    -9.0849   -11.7910 C       0      r0     0.2501
    105 C           13.5681    -9.6147   -12.1219 C       0      r0    -0.0280
    106 H           14.0912    -9.2530   -15.4341 H       0      r0     0.0466
    107 C           14.6789    -9.4760   -12.8904 C       0      r0     0.0309
    108 C           14.4763    -7.2069   -15.5312 C       0      r0    -0.0194
    109 C           14.6994   -10.2112   -15.3885 C       0      r0    -0.0132
    110 C           15.2736   -10.3890   -14.1362 C       0      r0    -0.0060
    111 C          -15.4570    -3.2976   -14.3581 C       0      r0    -0.0058
    112 C          -14.5128    -2.9964   -13.4198 C       0      r0    -0.0028
    113 C          -13.4041    -2.7100   -12.7376 C       0      r0    -0.0220
    114 H          -13.1029    -4.3759    15.8688 H       0      r0     0.0279
    115 C          -12.6291    -5.9843   -11.9961 C       0      r0    -0.0024
    116 C          -12.6453    -3.3012   -15.8597 C       0      r0    -0.0010
    117 H          -12.6915    -6.4067   -15.5380 H       0      r0     0.0202
    118 C          -12.4815    -6.2183   -13.3331 C       0      r0    -0.0015
    119 C          -12.1146    -2.9754   -13.3316 C       0      r0    -0.0019
    120 C          -11.4783    -5.1606   -11.5123 C       0      r0    -0.0035
    121 C          -11.7609    -3.1212   -14.7623 C       0      r0     0.0222
    122 H          -11.1042    -3.9426   -14.6806 H       0      r0     0.0274
    123 C          -10.8320    -2.2816   -12.7305 C       6      r6     0.0014
    124 C          -10.1138    -5.7211   -11.7055 C       0      r0    -0.0014
    125 C           -9.4378    -5.0744   -12.8465 C       0      r0    -0.0029
    126 C           -9.4345    -2.5840   -12.4618 C       6      r6    -0.0032
    127 C           -8.8166    -2.0736   -11.3403 C       6      r6     0.0002
    128 C           -8.7279    -3.9389   -12.9724 C       0      r0    -0.0038
    129 C           -7.8293    -2.8606    15.7796 C       5      r5    -0.0776
    130 C           -7.3350    -4.4387   -13.1086 C       0      r0    -0.0020
    131 C           -7.0746    -5.7492   -12.6372 C       0      r0    -0.0258
    132 C           -6.6648    -2.4190   -15.1025 C       6      r6     0.0092
    133 C           -6.3810    -3.7497   -14.1052 C       7      r7    -0.0189
    134 H           -5.8145    -4.5790   -14.4717 H       0      r0     0.0236
    135 C           -4.8967    -2.8695   -13.5181 C       7      r7     0.0002
    136 C           -4.7140    -3.9255   -12.6654 C       6      r6    -0.0059
    137 C           -4.6666    -5.8049   -11.4799 C       6      r6    -0.0061
    138 H           -3.7741    -5.8095   -15.7034 H       0      r0     0.0224
    139 C           -4.2792    -5.3034   -12.8694 C       6      r6     0.0262
    140 C           -2.7070    -2.6249   -11.8185 C       7      r7    -0.0090
    141 H           -2.4999    -2.6217   -12.8787 H       0      r0     0.0329
    142 C           -0.1837    -2.4879   -14.6979 C       0      r0    -0.0081
    143 C            0.0587    -3.7166   -14.8062 C       0      r0     0.0077
    144 C            0.4467    -4.2713   -13.3902 C       0      r0     0.0400
    145 C            1.3436    -4.4555   -12.3755 C       0      r0    -0.0061
    146 H            1.8946    -6.1578   -14.9701 H       0      r0     0.0214
    147 C            3.4617    -5.3990   -12.0873 C       0      r0    -0.0032
    148 C            4.3216    -6.1497   -12.4701 C       0      r0    -0.0588
    149 H            4.0783    -6.0629   -15.4973 H       0      r0     0.0531
    150 C            5.6233    -2.0783   -15.5656 C       0      r0     0.0042
    151 C            5.5784    -5.5469   -13.2830 C       3      r3     0.1371
    152 O            6.2766    -5.3081   -14.6302 O       3      r3    -0.4520
    153 C            5.9704    -4.3055   -13.5519 C       3      r3     0.1420
    154 H            6.6497    -2.4982   -15.1711 H       0      r0     0.0568
    155 C            6.4922    -2.9536   -11.4169 C       0      r0     0.0001
    156 C            6.6936    -3.0714   -12.5965 C       0      r0    -0.0378
    157 C            7.8461    -2.2499   -13.2027 C       0      r0     0.0405
    158 H            8.3905    -5.9667   -13.3779 H       0      r0     0.0448
    159 H            8.2674    -4.2496   -15.4665 H       0      r0     0.3856
    160 O            9.0579    -3.9648   -15.5152 O       0      r0    -0.7012
    161 H           10.4631    -3.5129   -12.5550 H       0      r0     0.0428
    162 H           11.1224    -2.1007   -15.4013 H       0      r0     0.0495
    163 C           11.6238    -3.6309   -12.8580 C       7      r7    -0.0089
    164 C           11.9903    -2.9956   -15.4130 C       0      r0    -0.0209
    165 C           12.3194    -3.9405   -14.0794 C       7      r7     0.0317
    166 C           12.2621    -3.8760   -11.6535 C       7      r7     0.0138
    167 H           12.9644    -2.4097   -15.6202 H       0      r0     0.0091
    168 C           13.7106    -4.2726   -13.7549 C       5      r5    -0.0070
    169 C           14.5087    -4.6044   -14.8998 C       5      r5    -0.0011
    170 C           14.3917    -5.1094   -12.5579 C       5      r5     0.0158
    171 C           14.7996    -6.1100   -14.4657 C       5      r5     0.0267
    172 C           15.4348    -5.9705   -13.0698 C       5      r5     0.0025
    173 C           15.6093    -3.7375   -14.7767 C       0      r0    -0.0045
    174 C          -15.7305    -1.1606   -11.6238 C       5      r5    -0.0748
    175 H          -15.2630    -2.1278   -11.6997 H       0      r0     0.0317
    176 H          -15.0091    -0.2575   -15.7973 H       0      r0     0.0251
    177 C          -13.8820    -0.3177   -15.7995 C       0      r0    -0.0163
    178 H          -13.3621    -1.7268   -12.0435 H       0      r0     0.0706
    179 C          -12.8907    -0.0241   -15.1850 C       0      r0     0.0307
    180 C          -11.6403     0.1616   -14.6916 C       0      r0     0.0237
    181 C          -10.9637    -0.8004   -12.7242 C       6      r6     0.0370
    182 C          -10.6883     0.2610   -13.8061 C       0      r0     0.0337
    183 C          -10.4117    -0.3505   -11.4431 C       6      r6    -0.0057
    184 H           -9.1080     0.9477   -15.2420 H       0      r0     0.0302
    185 C           -9.2023     0.5400   -14.3223 C       0      r0    -0.0264
    186 C           -8.5063    -0.7984   -14.8645 C       5      r5    -0.0420
    187 H           -8.9575     1.3061   -13.3828 H       0      r0     0.0156
    188 C           -7.3665    -1.2121   -14.5091 C       6      r6    -0.0040
    189 H           -7.3206     0.3562   -13.1546 H       0      r0     0.0169
    190 C           -6.4868     0.0428   -13.7460 C       6      r6    -0.0144
    191 C           -5.7287     0.6091   -14.9129 C       6      r6    -0.0204
    192 C           -5.4378    -1.7059   -15.7088 C       6      r6     0.0049
    193 C           -5.1637    -0.2837   -15.8602 C       6      r6     0.0001
    194 C           -5.1446    -0.4953   -12.9898 C       7      r7    -0.0059
    195 H           -5.3043     1.4060   -14.4672 H       0      r0     0.0191
    196 C           -4.7450    -1.7068   -13.1893 C       7      r7    -0.0062
    197 C           -4.2861     0.3212   -11.9624 C       0      r0    -0.0197
    198 C           -4.3466     1.4549   -11.1984 C       0      r0    -0.0120
    199 C           -3.1812     1.2429   -15.3815 C       0      r0    -0.0122
    200 H           -3.4527    -0.5062   -12.2561 H       0      r0     0.0209
    201 H           -1.5420     2.3831   -14.3167 H       0      r0     0.0135
    202 C           -0.3312    -1.7090   -15.7709 C       0      r0     0.0102
    203 H            0.5846    -1.0918   -12.8476 H       0      r0     0.0229
    204 C            1.5246    -1.0825   -12.3083 C       0      r0    -0.0216
    205 C            1.7754    -2.1335   -11.4024 C       0      r0     0.0046
    206 C            2.1712     0.3385   -12.2457 C       6      r6    -0.0039
    207 C            2.9653     1.3152   -13.2462 C       6      r6    -0.0050
    208 C            3.6173     1.1773   -14.5916 C       0      r0    -0.0168
    209 C            4.8401     0.2754   -15.0256 C       0      r0    -0.0100
    210 C            5.2559    -0.7682   -15.2145 C       0      r0    -0.0034
    211 H            5.5675     1.3718   -12.0566 H       0      r0     0.0231
    212 C            6.1120     0.4832   -12.4137 C       0      r0    -0.0401
    213 H            6.1073     0.4189   -13.5425 H       0      r0     0.0236
    214 C            7.7911    -1.0980   -14.1680 C       0      r0    -0.0147
    215 C            8.5123    -0.8804   -15.2325 C       0      r0     0.0336
    216 C            8.8077    -1.8777   -12.1238 C       0      r0    -0.0060
    217 C            9.8723    -1.4837   -11.3336 C       6      r6    -0.0044
    218 C           10.8579    -0.2341   -11.5086 C       6      r6    -0.0100
    219 C           11.7040     0.3675   -14.8948 C       0      r0     0.0028
    220 C           12.5389    -0.1091   -14.1566 C       0      r0    -0.0464
    221 H           12.2388    -0.3326   -13.1014 H       0      r0     0.0239
    222 H           13.4985    -0.2154   -14.6115 H       0      r0     0.0195
    223 H           14.4771    -1.6797   -12.7876 H       0      r0     0.0156
    224 C           14.8080     1.4838   -13.1063 C       0      r0     0.0051
    225 C           14.7336     0.5346   -11.7870 C       5      r5    -0.0111
    226 C           14.9647    -1.0828   -12.0442 C       5      r5    -0.0235
    227 C          -14.8218     3.8934   -11.9968 C       6      r6     0.0023
    228 C          -14.3590     5.1881   -12.7520 C       0      r0    -0.0202
    229 C          -13.8046     2.7863   -11.9467 C       6      r6    -0.0459
    230 C          -13.7938     5.2550   -14.0401 C       0      r0    -0.0022
    231 C          -13.1887     4.9914   -15.2866 C       5      r5    -0.0107
    232 H          -12.8928     2.7620   -12.3005 H       0      r0     0.1384
    233 C          -12.7277     3.5051   -15.1025 C       5      r5     0.0118
    234 H          -12.8245     6.0192   -12.1271 H       0      r0     0.0197
    235 C          -11.7206     6.0907   -11.8341 C       0      r0    -0.0166
    236 C          -11.3978     3.5510   -15.5757 C       5      r5     0.0071
    237 O          -11.0711     2.2955   -11.8391 O       0      r0    -0.5991
    238 C          -10.8902     4.8916    15.8712 C       5      r5    -0.0036
    239 H          -10.3762     2.9297   -12.0017 H       0      r0     0.2608
    240 C          -10.4922     2.3597   -15.7345 C       0      r0    -0.0139
    241 C           -9.2854     2.7659   -15.3459 C       0      r0    -0.0039
    242 C           -8.8353     5.6052   -12.2209 C       6      r6    -0.0088
    243 C           -8.5858     6.0295    15.7693 C       0      r0    -0.0046
    244 C           -8.4796     3.4561   -14.7156 C       0      r0    -0.0046
    245 C           -7.4453     5.7653   -12.8893 C       6      r6     0.0502
    246 C           -7.5658     4.1585   -14.5893 C       0      r0    -0.0042
    247 C           -7.6696     3.9004   -11.7929 C       6      r6     0.0160
    248 C           -7.2873     5.0593   -15.8173 C       0      r0    -0.0408
    249 C           -6.8938     4.2891   -13.1390 C       6      r6    -0.0186
    250 H           -6.5573     5.9169   -15.7920 H       0      r0     0.0150
    251 H           -5.6938     4.3463   -13.2169 H       0      r0     0.0470
    252 H           -5.4275     1.9792   -11.1813 H       0      r0     0.0231
    253 H           -2.7265     3.6110   -12.8356 H       0      r0     0.0253
    254 C           -3.2596     4.2824   -13.6222 C       0      r0    -0.0093
    255 C           -3.1544     3.6538   -14.9383 C       0      r0    -0.0081
    256 C           -3.3440     5.6530   -13.6196 C       0      r0    -0.0097
    257 C           -2.5529     2.3018   -14.8485 C       0      r0    -0.0232
    258 H           -1.9313     5.8636   -15.1467 H       0      r0     0.0291
    259 H           -0.7562     4.7983   -14.4227 H       0      r0     0.0264
    260 H            0.0033     3.7641   -13.0407 H       0      r0     0.0264
    261 H            0.2705     3.3069   -14.9678 H       0      r0     0.0208
    262 C            0.0211     3.9242   -14.0886 C       0      r0    -0.0577
    263 C            1.7401     5.1993   -15.2700 C       0      r0     0.0003
    264 C            1.4706     4.3941   -14.2866 C       0      r0    -0.0004
    265 H            1.9719     2.9382    15.4667 H       0      r0     0.0231
    266 H            2.5715     4.0698   -11.9815 H       0      r0     0.0225
    267 C            2.7504     4.6920   -13.2306 C       0      r0    -0.0232
    268 H            3.2527     5.8217   -13.1919 H       0      r0     0.0190
    269 C            3.7607     2.4547   -12.8555 C       6      r6    -0.0029
    270 C            3.8376     2.8795   -11.3652 C       6      r6    -0.0066
    271 C            3.9856     3.7658   -13.7100 C       0      r0    -0.0177
    272 H            4.0376     3.7672   -14.7414 H       0      r0     0.0165
    273 H            4.3150     2.1199   -14.8694 H       0      r0     0.0138
    274 C            4.9997     4.8147   -13.1557 C       0      r0    -0.0061
    275 C            5.9246     5.6991   -12.7084 C       0      r0    -0.0067
    276 C            6.9963     5.4448    15.7953 C       0      r0     0.0081
    277 H            7.1998     4.4598   -13.9153 H       0      r0     0.0183
    278 C            8.3660     4.8318   -11.4350 C       6      r6     0.0017
    279 C            8.3775     3.9808   -13.9214 C       0      r0    -0.0164
    280 C            8.9377     3.6546   -15.2526 C       0      r0    -0.0192
    281 C            9.0259     3.9846   -12.5289 C       6      r6    -0.0024
    282 H            8.8067     2.9253    15.7482 H       0      r0     0.0205
    283 C            9.5818     2.7963   -11.8607 C       6      r6     0.0017
    284 C            9.9803     4.5403   -15.3509 C       0      r0     0.0038
    285 C           11.1069     5.4270   -15.4498 C       0      r0    -0.0133
    286 C           11.0659     2.6699   -12.0922 C       5      r5    -0.0016
    287 C           11.7815     5.4224   -12.1339 C       0      r0    -0.0013
    288 C           11.7401     3.9859   -12.3602 C       5      r5    -0.0009
    289 C           13.1581     3.6761   -12.1728 C       5      r5    -0.0043
    290 C           14.5139     4.6802   -13.9173 C       7      r7    -0.0024
    291 C           14.3753     4.4729   -12.3152 C       7      r7    -0.0035
    292 C           14.6192     3.5410   -14.7486 C       7      r7    -0.0000
    293 C           14.5585     2.2166   -13.8917 C       0      r0    -0.0044
    294 C           14.8093     6.0692   -14.2717 C       6      r6    -0.0111
    295 C           15.2259     5.2838   -11.2923 C       7      r7    -0.0080
    296 C          -15.9834     8.4283   -14.0284 C       6      r6     0.0019
    297 C           16.0489     7.3218   -12.2405 C       7      r7    -0.0052
    298 H          -14.4653     6.1438   -12.0805 H       0      r0     0.0221
    299 C          -14.4974     8.5485   -13.8191 C       0      r0    -0.0000
    300 C          -14.0367     8.3633   -15.0462 C       0      r0    -0.0081
    301 C          -13.6019     8.8113   -11.4921 C       0      r0     0.0172
    302 C          -13.6196     8.9242   -12.6257 C       0      r0     0.0033
    303 H          -11.0827     7.7397   -15.7147 H       0      r0     0.0150
    304 H          -10.4134     7.8946   -11.2886 H       0      r0     0.0221
    305 H          -10.1926     7.3537   -13.1942 H       0      r0     0.0163
    306 C           -9.1744     7.6418   -13.7487 C       0      r0    -0.0139
    307 C           -8.8204     6.9550   -14.9745 C       0      r0    -0.0063
    308 C           -8.3513     8.9329   -13.9051 C       0      r0    -0.0201
    309 C           -7.6342     9.7125   -12.6853 C       0      r0     0.0283
    310 H           -8.4286     9.2535   -14.9327 H       0      r0     0.0165
    311 H           -5.0504     6.5500   -14.4286 H       0      r0     0.0297
    312 C           -3.8812     6.6193   -14.7130 C       0      r0    -0.0218
    313 C           -3.3675     7.6738   -15.5689 C       0      r0     0.0099
    314 H           -3.5827     6.4558   -12.8331 H       0      r0     0.0608
    315 H           -2.4092    10.1571   -13.9230 H       0      r0     0.0550
    316 H           -1.9782     7.5616   -12.4323 H       0      r0     0.3588
    317 O           -1.2741     7.9776   -12.4637 O       0      r0    -0.7315
    318 H            0.3794     9.2835   -14.5838 H       0      r0     0.0437
    319 C            1.2754     9.7826   -11.4245 C       5      r5     0.0331
    320 C            1.2874     9.4903   -14.0638 C       0      r0    -0.0105
    321 H            2.5498     7.4745   -14.8380 H       0      r0     0.0193
    322 C            2.4644     8.6819   -14.6600 C       0      r0    -0.0177
    323 C            3.7828     9.1820   -14.4746 C       0      r0     0.0016
    324 H            4.0715     8.0136   -11.5777 H       0      r0     0.0176
    325 C            4.7201     8.3168   -13.7737 C       0      r0     0.0005
    326 C            4.9080     8.1658   -12.3489 C       0      r0    -0.0190
    327 C            5.9773     8.1855   -14.6366 C       0      r0     0.0027
    328 C            6.2876     7.9532   -11.8225 C       6      r6     0.0028
    329 C            6.6218     6.7167   -12.1579 C       6      r6     0.0002
    330 C            6.8043     7.7781   -15.2846 C       0      r0    -0.0012
    331 H            7.2462    10.1122   -11.9288 H       0      r0     0.0300
    332 C            7.2288     9.0927   -11.2839 C       6      r6    -0.0338
    333 C            7.5291     6.5633   -15.5756 C       0      r0    -0.0207
    334 C            8.1770     6.4775   -12.0396 C       6      r6    -0.0190
    335 H            8.6435     6.6718   -13.0172 H       0      r0     0.0213
    336 H            8.5769     6.9236   -15.8076 H       0      r0     0.0224
    337 C            9.8149     9.4121   -13.2858 C       0      r0     0.0027
    338 C           10.4822     8.4177   -13.5083 C       0      r0    -0.0091
    339 H           10.6008     6.3099   -15.4593 H       0      r0     0.0295
    340 C           11.2901     7.4797   -13.2776 C       0      r0    -0.0005
    341 C           12.1485     6.5728   -13.1347 C       0      r0    -0.0189
    342 H           13.3068     8.4453    15.3228 H       0      r0     0.0597
    343 H           13.0809     6.7372   -13.7758 H       0      r0     0.0248
    344 C           13.7697     8.1567   -15.5044 C       6      r6    -0.0179
    345 C           14.2083     6.8070   -15.4111 C       6      r6    -0.0004
    346 C           14.0525     9.8355   -14.0838 C       0      r0    -0.0035
    347 C           14.9849     8.7992   -14.7233 C       6      r6     0.0015
    348 C           15.7154     6.9590   -13.6003 C       6      r6    -0.0047
    349 C          -15.9107    12.6993   -14.5297 C       0      r0    -0.0279
    350 H          -16.0326    11.0099   -13.5235 H       0      r0     0.0146
    351 C          -15.8508    12.0780   -13.1021 C       0      r0     0.1494
    352 C          -14.8709    13.8475   -14.8433 C       0      r0     0.0202
    353 O          -14.3254    12.0288   -12.3088 O       0      r0    -0.4895
    354 C          -13.8481    13.5652   -15.7297 C       0      r0    -0.0064
    355 H          -12.8137    12.3663   -14.3501 H       0      r0    -0.0135
    356 C          -13.1485    11.8012   -13.2064 C       0      r0     0.2225
    357 H          -13.2720    13.9759   -12.5740 H       0      r0     0.0562
    358 C          -11.9623    11.2522   -12.7683 C       0      r0    -0.0466
    359 C          -11.5428    14.1124   -15.1179 C       6      r6    -0.0021
    360 C          -10.7901    10.7685   -12.7187 C       0      r0    -0.0037
    361 C          -10.3090    13.2923   -15.1354 C       6      r6     0.0001
    362 H          -10.3656    10.7028   -13.7778 H       0      r0     0.0134
    363 C           -9.8329    10.5977   -11.5958 C       5      r5     0.0057
    364 C          -10.0564    14.0689   -11.7026 C       0      r0    -0.0247
    365 H          -10.1826    14.0681   -12.7828 H       0      r0     0.0170
    366 H          -10.0361    10.8068   -15.6357 H       0      r0     0.0138
    367 C           -9.0662    14.0896   -14.9670 C       0      r0    -0.0235
    368 C           -8.3644    10.5614   -11.6291 C       5      r5    -0.0602
    369 C           -7.2720    13.1207   -15.3896 C       0      r0    -0.0092
    370 C           -6.5384    10.4146   -12.8505 C       0      r0     0.0218
    371 C           -6.4128    12.6240   -14.6783 C       0      r0    -0.0111
    372 C           -5.5489    12.2813   -13.5787 C       0      r0    -0.0051
    373 C           -5.3038    13.1879   -12.4746 C       0      r0    -0.0049
    374 C           -5.2222    10.9153   -13.1570 C       0      r0     0.0095
    375 C           -4.2934    10.7986   -11.9855 C       0      r0    -0.0028
    376 C           -3.2869    13.3413   -15.0293 C       0      r0    -0.0198
    377 C           -3.2575    11.4632   -12.0123 C       0      r0     0.0042
    378 C           -3.0070    12.1178   -14.7372 C       0      r0    -0.0017
    379 C           -2.6647    10.8166   -14.9108 C       0      r0    -0.0262
    380 C           -2.4737    12.2154   -11.4664 C       0      r0     0.0146
    381 C           -1.9505    10.4979    15.6963 C       0      r0    -0.0013
    382 H           -0.9894    14.2505   -14.6474 H       0      r0     0.0190
    383 C            1.1080    10.2630   -12.7718 C       5      r5     0.0135
    384 C            1.4620    11.7343   -12.5682 C       5      r5     0.0020
    385 H            2.8242    11.2329   -13.8995 H       0      r0     0.0222
    386 H            3.6410    12.6616   -15.4038 H       0      r0     0.0505
    387 C            3.7871    10.8131   -14.1973 C       0      r0     0.0122
    388 C            4.5634    11.1231   -13.1586 C       0      r0     0.0291
    389 C            5.4064    11.3242   -12.3045 C       0      r0     0.0049
    390 O            6.0802    12.2367   -15.4745 O       0      r0    -0.5323
    391 H            6.6365    13.4258   -13.6782 H       0      r0    -0.0370
    392 C            6.6194    13.0795   -14.7292 C       0      r0     0.3489
    393 C            7.3627    14.2771   -15.5642 C       6      r6    -0.0336
    394 H            8.2351    12.7983   -13.7068 H       0      r0     0.0144
    395 H            9.6337    11.3653   -13.9237 H       0      r0     0.0251
    396 C            8.8660    13.8459   -13.7148 C       6      r6    -0.0223
    397 C            8.9242    11.4212   -11.7964 C       0      r0     0.0020
    398 C            9.3624    10.7583   -13.0794 C       0      r0    -0.0155
    399 C           10.0262    14.3204   -12.9358 C       6      r6     0.0011
    400 C           11.5689    11.9967   -15.6492 C       0      r0    -0.0219
    401 C           11.5463    12.4097   -14.1991 C       0      r0    -0.0053
    402 C           12.0056    11.3438   -13.3136 C       0      r0    -0.0022
    403 C           12.3483    12.2933   -12.1310 C       0      r0    -0.0035
    404 H           13.2229    13.9428   -13.3460 H       0      r0     0.0199
    405 C           13.3969    10.7385   -13.8596 C       0      r0    -0.0076
    406 C           13.9384    12.6647    15.8775 C       0      r0    -0.0077
    407 C           15.1793    12.8604   -15.4343 C       0      r0     0.0025
    408 H           15.5423    12.5950   -12.4501 H       0      r0     0.0061
    409 H          -15.7860   -13.1568    -8.7701 H       0      r0     0.0109
    410 C          -15.4248   -14.1529    -7.9590 C       0      r0    -0.0154
    411 C          -13.3116   -11.5532   -11.1308 C       6      r6     0.0052
    412 C          -12.5770   -10.9388    -9.9185 C       6      r6    -0.0002
    413 H          -12.0156   -13.8748   -11.3290 H       0      r0     0.0196
    414 C          -11.0826   -10.8744    -9.7321 C       0      r0     0.0008
    415 C          -10.2185   -11.5645    -7.2402 C       6      r6    -0.0003
    416 C          -10.2338   -13.9956    -7.8216 C       6      r6    -0.0153
    417 C           -9.8134   -12.6886    -8.0930 C       6      r6    -0.0203
    418 C           -9.9957   -10.8958    -9.7476 C       0      r0    -0.0086
    419 H           -9.0049   -12.4232    -8.9058 H       0      r0     0.0200
    420 C           -8.9187   -13.7331   -11.0861 C       0      r0    -0.0035
    421 C           -8.3728   -10.6854    -9.8785 C       0      r0    -0.0177
    422 C           -8.1610   -13.1444   -10.6149 C       0      r0    -0.0104
    423 C           -7.4317   -11.7129   -10.4361 C       0      r0    -0.0081
    424 C           -6.3671   -14.1692    -8.5712 C       0      r0    -0.0219
    425 H           -6.5554   -10.9062    -6.7083 H       0      r0     0.0169
    426 C           -6.1223   -11.3890   -10.2352 C       0      r0     0.0080
    427 C           -5.6959   -14.2344    -7.4251 C       0      r0    -0.0047
    428 C           -5.2351   -13.7230    -9.4349 C       0      r0     0.0162
    429 C           -4.8437   -12.4024    -9.8452 C       0      r0    -0.0582
    430 C           -3.7218   -12.0759   -10.8318 C       3      r3     0.1647
    431 H           -3.7008   -10.2735    -8.5603 H       0      r0     0.0274
    432 C           -2.6719   -11.0465   -10.3578 C       3      r3     0.0528
    433 C           -1.9097   -10.2330   -10.6692 C       0      r0     0.0735
    434 H            0.7430   -12.7490    -7.8414 H       0      r0     0.0181
    435 C            1.7290   -13.0435    -7.7030 C       5      r5    -0.0161
    436 H            2.2895   -12.8405   -11.0120 H       0      r0     0.0192
    437 C            2.6565   -12.4002    -8.5503 C       5      r5    -0.0028
    438 C            2.7919   -10.9839    -8.5854 C       0      r0    -0.0050
    439 H            2.9775   -14.1892   -10.7087 H       0      r0     0.0233
    440 C            3.9334   -13.3430    -8.8201 C       5      r5     0.0083
    441 C            3.8281   -13.6917   -10.4955 C       0      r0    -0.0459
    442 H            4.5770    14.2630   -10.6732 H       0      r0     0.0260
    443 C            5.3663   -13.0083    -8.2365 C       0      r0    -0.0181
    444 H            5.5618   -12.3224    -7.4578 H       0      r0     0.0259
    445 C            6.0153   -14.1957    -7.9731 C       0      r0    -0.0103
    446 H            6.6161   -10.6283    -9.4462 H       0      r0     0.0205
    447 H            7.7252   -12.5855    -9.4011 H       0      r0     0.0175
    448 H            7.5302   -12.7314    -6.5890 H       0      r0     0.0226
    449 C            8.5200   -10.9573    -8.3209 C       0      r0     0.0054
    450 H            8.5304    14.2491    -9.4560 H       0      r0     0.0187
    451 C            8.4608   -11.6894    -9.2951 C       0      r0    -0.0262
    452 C            9.1842   -11.3166   -10.6756 C       7      r7     0.0015
    453 C           10.4686   -12.1478   -10.4323 C       7      r7     0.0007
    454 C           11.0075   -13.3473   -10.9019 C       6      r6    -0.0047
    455 C           11.0499   -11.4275    -9.2714 C       6      r6    -0.0005
    456 C           11.2335   -11.7758    -7.8261 C       6      r6    -0.0044
    457 C           11.4409   -13.2930    -7.8101 C       0      r0    -0.0084
    458 C           11.6810   -10.8032    -6.9791 C       6      r6    -0.0004
    459 C           11.7998   -14.3277    -7.2077 C       0      r0    -0.0048
    460 C           13.3155   -12.9276   -10.5168 C       6      r6    -0.0203
    461 H           13.0224   -12.9663    -9.3930 H       0      r0     0.0180
    462 C           14.3354   -12.2089   -11.3193 C       6      r6    -0.0151
    463 H           15.2362   -12.2218   -10.7499 H       0      r0     0.0182
    464 C          -15.8714    -8.9032    -7.2965 C       0      r0    -0.0045
    465 C          -15.0185    -6.2891   -11.3050 C       7      r7    -0.0022
    466 H          -14.5454    -8.1619   -10.4961 H       0      r0     0.0187
    467 C          -13.7888    -8.9774   -10.7312 C       6      r6    -0.0130
    468 C          -13.6374    -6.7424   -11.1123 C       0      r0    -0.0288
    469 H          -12.9277    -6.9461   -10.3331 H       0      r0     0.0188
    470 C          -13.1698    -9.6773    -9.6860 C       6      r6    -0.0143
    471 H          -13.0843    -9.2813    -8.5415 H       0      r0     0.0160
    472 C          -11.4327    -8.4144    -6.8912 C       6      r6     0.0053
    473 H          -12.0921    -7.0053    -7.9103 H       0      r0     0.0159
    474 C          -11.0347    -7.5225    -7.8182 C       6      r6    -0.0122
    475 C           -9.9651   -10.1256    -7.3344 C       6      r6    -0.0055
    476 C           -9.7167    -7.5787   -10.0374 C       0      r0    -0.0044
    477 C           -9.8800    -7.9734    -8.6242 C       6      r6     0.0013
    478 C           -9.6844    -6.4433   -10.7930 C       0      r0    -0.0076
    479 C           -9.2218    -9.2968    -8.2067 C       6      r6     0.0101
    480 C           -7.7994    -9.6937    -8.6256 C       0      r0    -0.0382
    481 H           -8.8530    -9.9833   -10.7701 H       0      r0     0.0227
    482 H           -7.0784    -9.8666    -7.8473 H       0      r0     0.0203
    483 H           -7.4216    -9.1091    -9.3488 H       0      r0     0.0254
    484 H           -6.1095    -7.6955   -11.3339 H       0      r0     0.0177
    485 C           -5.7940   -10.0103   -10.1232 C       0      r0    -0.0240
    486 H           -5.4497    -9.6141    -9.2268 H       0      r0     0.0173
    487 H           -5.4168    -8.6717    -7.9467 H       0      r0     0.0258
    488 C           -5.1337    -8.0515   -10.7847 C       0      r0    -0.0132
    489 C           -5.2052    -9.4282   -11.4169 C       0      r0    -0.0166
    490 C           -4.1947    -8.3504    -7.7578 C       7      r7    -0.0013
    491 C           -4.1469    -7.1214   -11.4287 C       0      r0    -0.0065
    492 C           -3.7764    -9.7749    -7.6658 C       7      r7    -0.0666
    493 C           -3.6139    -7.1048    -7.0783 C       7      r7     0.0302
    494 H           -3.1257    -7.2490    -9.5827 H       0      r0     0.0237
    495 H           -1.5560    -8.2594    -9.5356 H       0      r0     0.0254
    496 C           -1.0492    -9.1391   -10.3377 C       0      r0    -0.0241
    497 C           -0.5664    -7.4272    -7.6588 C       0      r0     0.0180
    498 C            0.5280    -8.7045    -7.6238 C       0      r0     0.0041
    499 C            0.3354    -7.6446   -11.0572 C       0      r0     0.0089
    500 C            1.0852    -6.6122   -10.7316 C       0      r0     0.0057
    501 C            1.8520    -8.7029    -8.0082 C       0      r0    -0.0151
    502 C            2.2966    -8.7249    -9.3966 C       0      r0    -0.0067
    503 C            2.6074    -8.8039   -10.5963 C       0      r0     0.0004
    504 C            2.7936   -10.0565    -7.5645 C       0      r0    -0.0030
    505 C            5.5063    -8.5577    -7.1635 C       0      r0     0.0005
    506 C            6.3188    -7.8962    -8.2396 C       0      r0     0.0011
    507 C            6.5615    -8.4340    -9.6568 C       0      r0    -0.0221
    508 C            6.5157    -9.8210   -10.2520 C       0      r0    -0.0204
    509 H            7.1836    -6.2387    -7.0278 H       0      r0     0.0194
    510 H            7.2053    -7.8990   -10.3583 H       0      r0     0.0224
    511 C            7.0951    -6.8204    -8.0400 C       0      r0    -0.0158
    512 C            8.3528   -10.1169    -7.3922 C       0      r0    -0.0226
    513 C            8.3265    -6.7956    -8.8833 C       0      r0    -0.0215
    514 H            8.8678    -9.1488    -7.4832 H       0      r0     0.0187
    515 H            9.0483    -7.4531    -9.5076 H       0      r0     0.0268
    516 C           11.0902    -9.8278   -11.1699 C       7      r7    -0.0305
    517 C           11.1688    -9.4917    -7.4873 C       6      r6    -0.0004
    518 C           11.3192   -10.0628    -9.6778 C       6      r6     0.0094
    519 C           11.6164    -8.9433    -8.7288 C       6      r6    -0.0171
    520 H           12.1437    -7.9906    -8.7770 H       0      r0     0.0377
    521 H           15.2586    -6.9750   -11.4501 H       0      r0     0.0461
    522 C           15.9444    -8.3268    -8.3678 C       0      r0    -0.0095
    523 C           15.8029    -6.6143   -10.5555 C       7      r7    -0.0140
    524 C           15.7776    -7.5429    -9.4291 C       0      r0     0.0013
    525 H           15.8856    -4.1855   -10.9192 H       0      r0     0.0119
    526 H          -13.9701    -4.2528    -9.5937 H       0      r0     0.0135
    527 H          -13.6676    -3.8791    -7.6896 H       0      r0     0.0204
    528 C          -12.8763    -3.9981    -9.3445 C       0      r0    -0.0220
    529 C          -12.7977    -3.8450    -7.1602 C       0      r0    -0.0097
    530 C          -11.9330    -4.6890   -10.2265 C       0      r0    -0.0103
    531 C          -11.9778    -3.4415    -8.1836 C       0      r0    -0.0035
    532 H          -10.9593    -3.6573    -8.1449 H       0      r0     0.0254
    533 C           -8.9812    -2.4670    -8.3474 C       0      r0    -0.0117
    534 C           -8.9150    -5.0357    -7.8159 C       0      r0    -0.0225
    535 C           -8.7462    -3.8322    -8.5738 C       0      r0     0.0012
    536 H           -8.4512    -6.0210    -8.0661 H       0      r0     0.0484
    537 C           -7.7072    -2.7473   -10.5869 C       6      r6    -0.0200
    538 C           -7.5869    -3.8884    -9.4086 C       5      r5     0.0131
    539 H           -7.3036    -5.2754    -6.5434 H       0      r0     0.2824
    540 H           -7.1212    -3.3412   -11.4536 H       0      r0     0.0190
    541 C           -6.4382    -2.1318    -8.7657 C       5      r5    -0.0212
    542 O           -6.4617    -5.5721    -6.8065 O       0      r0    -0.6111
    543 C           -6.3209    -3.5965    -8.8203 C       5      r5    -0.0328
    544 C           -5.6259    -4.3946    -7.5696 C       0      r0     0.1968
    545 H           -5.0357    -2.6441   -10.9255 H       0      r0     0.0194
    546 C           -4.1562    -5.1992   -10.2614 C       6      r6     0.0105
    547 C           -4.2476    -3.2631   -11.3814 C       6      r6    -0.0105
    548 C           -4.1216    -4.4864    -7.6532 C       6      r6    -0.0297
    549 C           -3.6091    -3.9499   -10.1481 C       6      r6     0.0035
    550 C           -3.5953    -6.2016    -9.3478 C       6      r6    -0.0166
    551 C           -3.5334    -5.9458    -7.9721 C       6      r6     0.0170
    552 C           -3.3096    -3.6799    -8.6828 C       6      r6    -0.0068
    553 C           -2.5943    -2.4913    -8.4663 C       7      r7    -0.0091
    554 C           -1.7593    -2.3750    -7.2902 C       0      r0    -0.0003
    555 C            1.5376    -5.6099   -10.2220 C       0      r0    -0.0193
    556 C            1.9676    -3.0858   -10.6036 C       0      r0    -0.0215
    557 H            1.9676    -5.4702    -9.2025 H       0      r0     0.0125
    558 C            2.2370    -4.5393   -11.3432 C       0      r0     0.0001
    559 H            2.7393    -5.2092    -7.4133 H       0      r0     0.0142
    560 H            2.5553    -2.7083    -9.7580 H       0      r0     0.0199
    561 C            3.5557    -4.8102    -6.8962 C       0      r0    -0.0234
    562 H            3.8855    -4.4226    -9.4870 H       0      r0     0.0166
    563 C            4.7633    -4.3187    -7.3559 C       0      r0    -0.0120
    564 C            4.7420    -4.0720    -8.7929 C       0      r0    -0.0201
    565 C            6.0021    -3.4438    -8.9911 C       7      r7    -0.0004
    566 C            6.2761    -2.4296    -7.7009 C       7      r7    -0.0111
    567 C            6.3430    -2.5479   -10.2393 C       7      r7    -0.0049
    568 C            8.7877    -5.4597    -8.2152 C       0      r0     0.0012
    569 C            9.0919    -4.3689    -8.0701 C       0      r0    -0.0060
    570 C            9.8012    -3.2103    -7.9315 C       0      r0    -0.0018
    571 C            9.9866    -2.0963    -8.7782 C       0      r0     0.0025
    572 C           10.5795    -2.3492   -10.1994 C       6      r6    -0.0196
    573 H           10.2085    -3.4582   -10.2553 H       0      r0     0.0259
    574 C           12.8089    -2.8776    -9.3534 C       7      r7    -0.0028
    575 C           13.0169    -3.9276   -10.7232 C       7      r7    -0.0055
    576 C           13.6043    -2.7966    -8.3513 C       7      r7    -0.0117
    577 C           14.0101    -5.0252   -11.1616 C       7      r7     0.0320
    578 H           15.6261    -4.8905    -9.2305 H       0      r0     0.0185
    579 C           15.3620    -5.1356   -10.3755 C       7      r7    -0.0318
    580 C          -15.7007     2.0750   -10.4918 C       6      r6    -0.0472
    581 H          -15.2795    -0.5252    -8.8559 H       0      r0     0.0207
    582 C          -15.3773    -1.6954    -6.9539 C       0      r0     0.0101
    583 C          -15.1497     0.0542   -11.3262 C       5      r5     0.2425
    584 C          -14.7067    -1.1481    -8.0260 C       0      r0    -0.0075
    585 H          -14.9310     1.0813    -7.2105 H       0      r0     0.0101
    586 C          -14.2725     1.8979   -10.9849 C       6      r6     0.2280
    587 C          -13.5246    -0.3311    -7.5932 C       0      r0     0.0099
    588 O          -13.7631     0.5198   -11.3630 O       5      r5    -0.4786
    589 H          -12.9649     0.1975    -8.4293 H       0      r0     0.0416
    590 H          -12.2712     0.8424    -6.5666 H       0      r0     0.0229
    591 H          -10.4302     0.2666    -7.7730 H       0      r0     0.0365
    592 H          -10.0224     2.3653    -8.0247 H       0      r0     0.0261
    593 C          -10.0834     1.0971   -11.5330 C       5      r5     0.2164
    594 C          -10.0692    -0.4918    -7.1318 C       0      r0    -0.0888
    595 C           -9.3898    -1.5493    -7.8329 C       0      r0     0.0237
    596 C           -9.2184    -0.8528   -10.7288 C       6      r6    -0.0090
    597 C           -9.2699     1.3254   -10.4237 C       5      r5    -0.0470
    598 C           -8.4858     0.1352   -10.1857 C       6      r6     0.0009
    599 C           -7.1935    -1.5549    -9.8061 C       6      r6     0.0081
    600 C           -7.0727    -0.0746    -9.9374 C       6      r6    -0.0292
    601 H           -6.6946     0.9608   -10.2501 H       0      r0     0.0187
    602 H           -5.7161    -1.6250    -8.0122 H       0      r0     0.0093
    603 H           -4.3895    -0.9445    -8.9103 H       0      r0     0.0181
    604 C           -3.5640    -0.3620    -9.0244 C       0      r0    -0.0243
    605 C           -3.0241     0.5972    -8.2778 C       0      r0     0.0035
    606 C           -2.9920     1.8960   -11.1789 C       0      r0     0.0080
    607 C           -2.4585    -1.9393   -10.8479 C       7      r7    -0.0013
    608 C           -2.5477    -1.3184    -9.5275 C       7      r7    -0.0012
    609 C           -1.8795     1.3121    -7.8360 C       0      r0    -0.0229
    610 H           -0.8492     1.1014    -8.3297 H       0      r0     0.0228
    611 C           -0.6653     1.8046   -11.0422 C       0      r0    -0.0025
    612 C           -0.0869     0.5585   -10.3759 C       0      r0    -0.0074
    613 C           -0.0216    -1.1353    -6.8953 C       0      r0    -0.0189
    614 C            0.8701    -0.7747    -7.8797 C       0      r0     0.0027
    615 C            1.2538     0.0269   -10.3214 C       0      r0    -0.0002
    616 C            1.6347    -0.3302    -8.8300 C       0      r0    -0.0043
    617 C            2.1198     0.9994   -11.1025 C       6      r6    -0.0026
    618 C            2.9772    -0.2116    -8.3854 C       0      r0     0.0049
    619 H            3.7713    -1.7455    -6.6877 H       0      r0     0.0251
    620 C            3.4826    -0.7518    -7.0398 C       0      r0    -0.0128
    621 H            3.9991    -0.0169   -10.3969 H       0      r0     0.0207
    622 C            4.0955    -0.2986    -9.2765 C       0      r0    -0.0247
    623 H            4.6119     1.5082    -8.2197 H       0      r0     0.0220
    624 C            5.0462     1.8094    -7.2622 C       5      r5    -0.0183
    625 C            5.4846    -0.3562    -8.9651 C       7      r7    -0.0019
    626 C            6.1868    -1.0090   -10.1040 C       7      r7    -0.0067
    627 C            6.1607    -0.3339   -11.4039 C       0      r0     0.0016
    628 C            6.3820     1.1819    -6.9319 C       5      r5     0.0019
    629 C            6.5915     0.0990    -7.8076 C       7      r7    -0.0018
    630 C            6.8229    -1.2690    -7.3385 C       7      r7    -0.0181
    631 H            9.3304     1.2392   -10.4151 H       0      r0     0.0233
    632 H           10.4504    -0.3224    -7.5885 H       0      r0     0.0236
    633 C           10.1241    -0.7247    -8.5958 C       0      r0    -0.0342
    634 H           10.1043    -0.2632    -9.5944 H       0      r0     0.0277
    635 C           11.8595     0.3827   -10.9910 C       6      r6    -0.0071
    636 C           12.0445     1.8873   -11.3931 C       5      r5    -0.0035
    637 C           11.8444    -1.7433    -9.7176 C       6      r6     0.0017
    638 C           12.4563    -0.4983    -9.9294 C       6      r6    -0.0081
    639 C           13.1950     1.1494    -7.9947 C       7      r7    -0.0044
    640 C           13.4555     0.4171    -9.1475 C       7      r7    -0.0047
    641 H           13.6251     0.6652   -11.5130 H       0      r0     0.0202
    642 C           14.1484    -1.7530    -7.4445 C       7      r7    -0.0039
    643 H           14.2737    -1.4854   -11.1393 H       0      r0     0.0156
    644 C           14.4736    -0.4547    -8.2296 C       7      r7    -0.0215
    645 H           15.2523     0.2345    -7.6247 H       0      r0     0.0143
    646 C           15.9971     1.0426   -11.3624 C       5      r5    -0.0404
    647 C          -15.9491     4.2288   -10.9937 C       6      r6     0.0006
    648 H          -15.2801     4.8752    -8.0469 H       0      r0     0.0485
    649 H          -15.1009     3.3719    -7.3335 H       0      r0     0.0121
    650 C          -14.6090     4.4448    -7.4282 C       0      r0    -0.0459
    651 C          -13.3159     4.5411    -8.3838 C       0      r0    -0.0076
    652 C          -12.7543     4.1414    -9.5380 C       0      r0    -0.0050
    653 H          -12.7118     4.8570    -7.4341 H       0      r0     0.0131
    654 C          -11.8496     4.3540   -10.2511 C       0      r0     0.0352
    655 C          -11.0089     5.0040   -11.1102 C       0      r0     0.0033
    656 C           -9.7127     2.9709    -8.7042 C       0      r0    -0.0446
    657 H           -9.8136     4.1395    -8.5598 H       0      r0     0.0183
    658 C           -9.4760     4.9193   -11.1016 C       6      r6    -0.0071
    659 C           -9.1631     2.7153    -9.7367 C       0      r0     0.0332
    660 C           -8.4505     3.8700   -10.5932 C       6      r6    -0.0111
    661 C           -8.1942     5.9848    -8.0036 C       0      r0    -0.0239
    662 H           -8.2468     5.1495    -8.6022 H       0      r0     0.0223
    663 H           -5.6234     5.0611    -9.3531 H       0      r0    -0.0032
    664 O           -5.2181     5.9540   -10.9745 O       0      r0    -0.5064
    665 C           -5.2339     6.0067    -9.7473 C       0      r0     0.3557
    666 H           -3.2554     3.0217    -8.5384 H       0      r0     0.0395
    667 C           -2.4882     2.7017    -7.7758 C       0      r0     0.0075
    668 O           -2.6074     5.6991    -7.9052 O       6      r6    -0.4578
    669 H           -1.8289     3.5529   -10.5375 H       0      r0     0.0350
    670 C           -1.7213     2.7652   -11.0008 C       0      r0    -0.0316
    671 H           -0.8978     4.1310    -9.1295 H       0      r0     0.0399
    672 H           -1.3305     6.1095   -10.9757 H       0      r0     0.0497
    673 H           -0.4106     4.8713    -7.4404 H       0      r0     0.0374
    674 C           -0.2341     4.8225    -8.5328 C       0      r0    -0.0116
    675 C            0.0946     6.1982    -9.1708 C       6      r6     0.0500
    676 C            1.0313     3.9048    -8.7551 C       0      r0    -0.0170
    677 C            1.6158     3.0906    -7.7202 C       0      r0    -0.0093
    678 C            1.7225     3.3175    -9.9209 C       0      r0    -0.0070
    679 C            2.3367     2.5805    -6.8639 C       0      r0     0.0015
    680 C            2.4219     2.4873   -10.7705 C       6      r6    -0.0030
    681 C            4.3868     4.0472   -10.8440 C       0      r0    -0.0004
    682 C            4.9884     5.1498   -10.3452 C       0      r0    -0.0175
    683 C            6.3964     5.1673    -9.8809 C       0      r0     0.0028
    684 C            7.1461     6.0390    -9.1078 C       0      r0     0.0099
    685 C            7.3220     4.1177   -10.4454 C       6      r6     0.0105
    686 H            6.6563     2.2563    -9.7863 H       0      r0     0.0229
    687 C            7.5851     2.6637   -10.2327 C       6      r6    -0.0060
    688 H            8.8898     5.8426    -7.7615 H       0      r0     0.0576
    689 C            8.7952     2.1630   -10.8554 C       6      r6    -0.0083
    690 C           11.4351     6.1024   -10.8165 C       0      r0     0.0052
    691 C           12.1242     3.5340    -7.6520 C       6      r6    -0.0040
    692 C           12.3078     5.7410    -8.3927 C       0      r0     0.0217
    693 C           12.6115     2.4480    -8.4597 C       6      r6     0.0017
    694 C           12.6918     5.9710    -9.8921 C       0      r0    -0.0447
    695 C           13.0544     4.6390    -7.6246 C       6      r6     0.0063
    696 H           12.7781     5.0025   -10.1644 H       0      r0     0.0316
    697 C           13.2950     2.5531   -11.1153 C       5      r5    -0.0037
    698 C           13.4000     2.7427    -9.6145 C       6      r6     0.0014
    699 C           14.3597     4.0159    -7.9637 C       6      r6    -0.0234
    700 C           14.6622     3.2426    -9.0215 C       6      r6    -0.0050
    701 H           15.0222     4.2953    -7.3208 H       0      r0     0.0262
    702 C           15.7651     3.2826   -10.0852 C       6      r6     0.0064
    703 C          -15.8797     9.3511    -7.0841 C       3      r3     0.4278
    704 C          -14.3039     9.7560    -9.1852 C       0      r0     0.1128
    705 C          -13.3052     8.9148   -10.1191 C       0      r0    -0.0167
    706 C          -12.3665     8.1686    -9.4331 C       6      r6     0.1707
    707 O          -12.3735     8.7320    -7.8177 O       6      r6    -0.4019
    708 C          -12.0621     7.3165    -7.0605 C       6      r6     0.2104
    709 C          -11.4609     7.2365    -9.6777 C       6      r6    -0.0329
    710 C          -11.4775     7.3677   -11.2014 C       0      r0    -0.0284
    711 C          -10.7965     6.5408    -7.5778 C       6      r6    -0.0407
    712 C          -10.2706     6.6649    -8.9601 C       6      r6    -0.0010
    713 H           -9.4319     6.8981    -9.3496 H       0      r0     0.0252
    714 C           -9.3678     6.5908    -6.8557 C       0      r0    -0.0149
    715 C           -7.1369     6.7672    -7.9270 C       0      r0     0.0008
    716 H           -5.8801     8.4031    -7.3832 H       0      r0     0.0355
    717 C           -5.8849     7.4153    -7.8374 C       0      r0    -0.0098
    718 C           -4.8211     7.1720    -8.7833 C       0      r0    -0.0322
    719 H           -4.5217    10.6057   -10.9854 H       0      r0     0.1174
    720 C           -3.7645     7.8978    -9.2196 C       0      r0     0.0311
    721 H           -3.1893     7.2709   -10.0605 H       0      r0     0.0687
    722 C           -3.0658     8.2877    -7.9656 C       5      r5     0.1556
    723 O           -2.5851     9.7302    -7.4176 O       5      r5    -0.4620
    724 C           -2.6841     7.2814    -7.3587 C       6      r6     0.1528
    725 C           -0.4882     6.6121   -10.4186 C       6      r6    -0.0777
    726 C           -0.3014     7.7525   -11.3595 C       6      r6     0.3094
    727 C            0.8611     8.4274   -11.0994 C       6      r6    -0.0672
    728 C            1.0681     7.0429    -8.7147 C       6      r6    -0.0307
    729 C            1.1212     8.2242    -9.5611 C       6      r6     0.0172
    730 H            1.4961     6.6685    -7.8367 H       0      r0     0.0249
    731 H            1.8119    10.0757    -8.5626 H       0      r0     0.0239
    732 C            2.3773     9.1082    -8.9281 C       0      r0    -0.0210
    733 C            3.5605     9.0060    -9.1792 C       0      r0    -0.0012
    734 C            4.8452     9.2200    -9.4818 C       0      r0    -0.0363
    735 H            4.7355     6.2812   -10.0498 H       0      r0     0.0154
    736 H            5.5643     8.4280    -9.4061 H       0      r0     0.0156
    737 H            5.0790     8.7602    -7.5942 H       0      r0     0.0151
    738 H            6.8797     9.1094   -10.2483 H       0      r0     0.0194
    739 C            8.2237    10.1451    -7.3321 C       0      r0    -0.0218
    740 C            8.0227     7.8686    -7.6949 C       0      r0    -0.0066
    741 C            8.1380     6.4280    -8.3589 C       0      r0    -0.0162
    742 C            8.7013     8.6656   -11.0751 C       6      r6     0.0018
    743 C            9.0570     7.2017   -10.9532 C       6      r6     0.0024
    744 C            9.8631     9.4062   -11.0234 C       5      r5     0.0009
    745 C           10.4341     6.9964   -10.5416 C       5      r5     0.0028
    746 C           10.7738     8.6175   -10.3283 C       5      r5    -0.0240
    747 H           11.7333     9.1398   -10.1576 H       0      r0     0.0207
    748 H           12.5922     8.0551    -8.0743 H       0      r0     0.0279
    749 C           12.6264     7.0075    -7.6342 C       0      r0    -0.0089
    750 H           13.5284     6.6861    -9.9190 H       0      r0     0.0470
    751 C           14.8635     8.9824    -7.3070 C       3      r3     0.1332
    752 C           15.2838     6.9250   -11.1975 C       7      r7     0.0304
    753 O           15.6165     8.1285    -8.1495 O       3      r3    -0.4348
    754 H          -15.8405    12.4123   -10.4275 H       0      r0     0.0598
    755 C          -15.6628    12.1973    -9.5123 C       0      r0    -0.0198
    756 C          -15.4099    13.2076    -8.5116 C       0      r0     0.0039
    757 C          -14.8501    10.9954    -9.4383 C       0      r0     0.0122
    758 H          -13.1505    12.3301   -10.1184 H       0      r0     0.0642
    759 H          -12.4430    13.1969    -8.5485 H       0      r0     0.0292
    760 C          -12.3221    12.3171    -9.3233 C       0      r0    -0.0622
    761 H          -12.3803    11.3224    -8.8074 H       0      r0     0.0624
    762 C          -10.9278    12.2533   -10.0945 C       0      r0     0.0106
    763 H           -9.9691    14.1396    -8.8181 H       0      r0     0.0193
    764 C          -10.4661    13.2329   -10.8442 C       0      r0    -0.0060
    765 C           -9.9602    10.9930   -10.2048 C       5      r5     0.0055
    766 C           -8.8446    11.4668    -7.2754 C       0      r0     0.0117
    767 C           -8.5728    11.3892    -9.5776 C       5      r5    -0.0389
    768 C           -7.7289    11.5731    -8.2828 C       5      r5    -0.0426
    769 C           -7.6249    11.0322   -10.5263 C       5      r5     0.2356
    770 H           -7.3052    13.9898    -8.4044 H       0      r0     0.0196
    771 C           -6.3751    11.3465    -8.5909 C       5      r5     0.2105
    772 O           -6.2180    10.7730    -9.9751 O       5      r5    -0.5043
    773 H           -5.3799    11.4905    -8.2072 H       0      r0     0.0240
    774 C           -4.9064    13.5023   -11.3705 C       0      r0     0.0135
    775 C           -4.3133    13.9564   -10.1175 C       0      r0    -0.0034
    776 C           -3.0218    13.5870    -9.5497 C       0      r0     0.0105
    777 C           -2.6030    13.9928    -8.3147 C       0      r0    -0.0005
    778 C           -2.7604    14.2367    -6.9987 C       0      r0    -0.0185
    779 C           -2.0539    13.0140   -10.5264 C       0      r0    -0.0138
    780 H           -1.0811    13.5633   -10.3916 H       0      r0     0.0161
    781 H           -0.0119    11.7900    -6.9953 H       0      r0     0.0353
    782 C            1.0749    12.1546   -11.2202 C       5      r5    -0.0120
    783 C            1.3110    10.9947   -10.5731 C       5      r5    -0.0238
    784 C            1.4892    12.9586    -7.4374 C       0      r0    -0.0073
    785 H            0.9472    11.2190    -9.4754 H       0      r0     0.0233
    786 H            0.7016    12.6556   -10.1678 H       0      r0     0.0126
    787 C            1.9352    14.1304    -7.9987 C       5      r5    -0.0022
    788 C            3.4055    14.1433    -8.3586 C       5      r5    -0.0177
    789 H            4.2042    11.5344    -8.6145 H       0      r0     0.0205
    790 H            3.9590    13.1686    -8.1321 H       0      r0     0.0191
    791 C            4.4231    11.7806    -9.6608 C       0      r0    -0.0446
    792 H            4.3782    12.7098   -10.0655 H       0      r0     0.0223
    793 C            4.9911    10.6583   -10.1322 C       0      r0     0.0080
    794 H            5.3839    13.7550    -8.2580 H       0      r0     0.0212
    795 C            6.0247    11.2822   -10.9930 C       0      r0    -0.0096
    796 C            7.1930    11.9630   -10.3915 C       0      r0    -0.0015
    797 C            7.3074    13.8494    -7.4669 C       6      r6    -0.0045
    798 C            7.2927    11.9030    -8.8992 C       0      r0    -0.0100
    799 C            7.4441    12.2872    -7.6707 C       6      r6    -0.0067
    800 C            8.3405    12.6000   -11.1119 C       0      r0     0.0058
    801 H            7.9125     9.6881    -8.3364 H       0      r0     0.0194
    802 C            8.7430    13.9527   -10.5485 C       0      r0    -0.0180
    803 H            9.3308    13.0447    -8.2048 H       0      r0     0.0256
    804 C            9.7964    10.9442   -10.7715 C       0      r0    -0.0050
    805 C           10.2431    12.5736    -7.9235 C       0      r0    -0.0390
    806 H           10.2798    12.5978    -6.8962 H       0      r0     0.0220
    807 C           10.9859    11.7155   -10.2874 C       0      r0     0.0045
    808 C           11.0294    11.9773    -8.7637 C       0      r0    -0.0156
    809 H           11.8081    11.6262    -8.0574 H       0      r0     0.0122
    810 C           12.0759    12.3773   -10.7460 C       0      r0    -0.0186
    811 H           12.4783    13.0621   -10.0444 H       0      r0     0.0198
    812 H           12.8749    12.6465    -7.1193 H       0      r0     0.0109
    813 C          -15.6824   -13.8680    -3.5594 C       5      r5    -0.0174
    814 H          -15.2193   -12.6584    -6.2908 H       0      r0     0.0165
    815 C          -15.3149   -13.6727    -6.7417 C       0      r0    -0.0219
    816 H          -15.9824   -12.7402    -3.6668 H       0      r0     0.0272
    817 H          -14.3737   -10.5945    -2.5009 H       0      r0     0.0213
    818 H          -13.5302   -11.3068    -4.1084 H       0      r0     0.0072
    819 C          -12.8537   -13.4690    -5.2964 C       6      r6    -0.0126
    820 C          -12.7598   -10.5566    -4.6948 C       6      r6    -0.0357
    821 C          -11.8268   -13.2269    -6.1718 C       6      r6    -0.0008
    822 C          -11.7009   -10.5658    -5.8403 C       6      r6     0.0168
    823 C          -11.3231   -11.7866    -6.3668 C       6      r6    -0.0058
    824 H          -10.6411   -14.2821    -4.6222 H       0      r0     0.0228
    825 C           -9.7521   -14.1388    -3.9821 C       0      r0    -0.0184
    826 H           -9.1833   -10.9165    -4.8667 H       0      r0     0.0304
    827 C           -8.8032   -13.0882    -3.7763 C       5      r5     0.0019
    828 H           -9.1274   -10.8321    -3.1397 H       0      r0     0.0151
    829 H           -8.8437   -12.1456    -5.9818 H       0      r0     0.0208
    830 C           -8.5973   -11.8612    -4.8655 C       5      r5    -0.0386
    831 C           -7.6977   -13.0684    -2.9657 C       5      r5    -0.0049
    832 C           -7.1152   -11.5427    -4.7406 C       5      r5     0.0068
    833 C           -6.7356   -12.1027    -3.4936 C       5      r5    -0.0280
    834 H           -5.7824   -12.0586    -3.0776 H       0      r0     0.0263
    835 C           -5.9911   -11.2150    -5.7786 C       0      r0    -0.0449
    836 H           -5.0686   -11.8354    -6.0736 H       0      r0     0.0146
    837 H           -4.3657   -12.3104    -3.9658 H       0      r0     0.0245
    838 C           -3.7088   -12.2298    -3.0370 C       5      r5    -0.0668
    839 C           -3.1228   -13.3917    -2.5737 C       5      r5     0.2306
    840 C           -3.0649   -11.1663    -2.4959 C       5      r5    -0.0131
    841 H           -1.9202    14.3246    -6.2939 H       0      r0     0.0204
    842 C            0.3491   -13.8805    -2.9710 C       7      r7    -0.0183
    843 C            1.3274   -12.9461    -3.5975 C       7      r7    -0.0065
    844 C            1.3726   -11.6572    -3.2794 C       0      r0     0.0042
    845 C            1.5944   -10.3942    -3.0071 C       0      r0    -0.0191
    846 C            2.2822   -13.7070    -4.5413 C       7      r7    -0.0379
    847 H            3.3330   -11.8800    -3.4105 H       0      r0     0.0490
    848 C            3.4752   -13.7648    -3.7523 C       6      r6     0.2058
    849 C            3.8465   -12.6523    -2.9513 C       6      r6    -0.0674
    850 C            4.8047   -10.7556    -6.1176 C       0      r0    -0.0143
    851 H            5.0182   -11.5046    -5.4264 H       0      r0     0.0419
    852 C            5.2264   -12.4653    -2.8728 C       6      r6     0.0125
    853 C            5.7196   -11.2423    -2.2619 C       6      r6     0.2027
    854 C            6.2503   -13.4390    -2.8123 C       6      r6    -0.0639
    855 H            7.2223   -11.0547    -5.5367 H       0      r0     0.0270
    856 C            7.2680   -10.9990    -2.5234 C       6      r6    -0.0211
    857 C            7.4485   -13.2881    -2.2082 C       6      r6     0.0004
    858 C            8.2082   -13.5740    -6.0189 C       0      r0    -0.0348
    859 C            8.3533    14.2305    -2.3802 C       6      r6    -0.0261
    860 H            8.7273   -13.1211    -5.2077 H       0      r0     0.0184
    861 H            9.2838   -14.2552    -3.0486 H       0      r0     0.0164
    862 H           10.6399   -12.4447    -3.8904 H       0      r0     0.0082
    863 H           10.3442   -11.2488    -4.9663 H       0      r0     0.0133
    864 C           11.7896   -12.5524    -3.5915 C       0      r0    -0.0090
    865 C           11.4037   -10.8833    -5.4016 C       5      r5    -0.0208
    866 C           12.0877   -13.4279    -2.4858 C       0      r0     0.0104
    867 C           12.4564   -11.8691    -4.6666 C       0      r0     0.0120
    868 H           13.6675    -9.9875    -4.0151 H       0      r0     0.0317
    869 C           13.6167   -12.4588    -4.9334 C       0      r0    -0.0119
    870 C           13.9838   -13.9349    -4.5035 C       0      r0     0.0008
    871 H           14.0957   -12.5101    -5.8253 H       0      r0     0.0145
    872 C           15.3386   -10.5313    -3.1119 C       0      r0     0.3796
    873 H          -16.0454    -7.3206    -5.2763 H       0      r0     0.0268
    874 C          -16.0479   -10.1044    -4.2467 C       0      r0    -0.1220
    875 C          -15.0332    -7.1915    -5.1499 C       0      r0    -0.0407
    876 C          -15.1039    -9.5342    -5.1726 C       0      r0     0.0332
    877 H          -14.4759    -7.2983    -4.2580 H       0      r0     0.0397
    878 C          -13.9600    -7.3824    -6.4651 C       0      r0    -0.0107
    879 C          -13.6695    -9.8913    -2.3353 C       5      r5    -0.0303
    880 C          -13.6765    -9.5403    -5.4985 C       6      r6    -0.0046
    881 C          -12.9982    -8.3800    -6.1527 C       6      r6     0.0146
    882 C          -12.7460    -9.8776    -3.3813 C       5      r5     0.1884
    883 O          -11.7282    -8.6631    -2.9891 O       5      r5    -0.5027
    884 C          -10.8791    -9.6159    -6.2956 C       6      r6     0.0182
    885 C           -9.3774    -9.6675    -2.7514 C       5      r5     0.0298
    886 C           -8.4226    -8.6194    -2.8629 C       5      r5    -0.0105
    887 C           -7.2481    -8.4758    -3.6219 C       5      r5     0.0216
    888 C           -6.3617    -7.4380    -3.0059 C       5      r5    -0.0258
    889 C           -6.5164    -9.2770    -4.6097 C       0      r0     0.0125
    890 C           -5.4619    -9.8245    -5.1225 C       0      r0     0.0067
    891 O           -4.1447    -7.1063    -3.4321 O       0      r0    -0.4654
    892 C           -4.0039    -9.1069    -5.1495 C       7      r7    -0.0531
    893 C           -3.9937    -7.6683    -4.8804 C       7      r7     0.2666
    894 C           -3.4348    -6.8079    -5.8901 C       7      r7    -0.0185
    895 C           -3.1904    -9.7746    -6.1636 C       7      r7     0.2798
    896 H           -3.0627   -10.1169    -2.3459 H       0      r0     0.0821
    897 O           -1.8878    -9.4560    -5.9795 O       0      r0    -0.4537
    898 C           -1.4777    -6.5067    -5.3771 C       0      r0     0.0044
    899 H           -1.2221    -7.1507    -4.5552 H       0      r0     0.0902
    900 C           -1.1205    -6.6218    -6.7951 C       0      r0     0.0013
    901 H            0.7659    -9.5197    -6.9084 H       0      r0     0.0416
    902 H            0.4032    -9.9758    -4.8553 H       0      r0     0.0680
    903 C            1.2192    -9.4294    -4.2606 C       0      r0     0.0028
    904 C            1.8334    -8.0833    -3.8638 C       0      r0    -0.0038
    905 H            1.7768    -8.0388    -2.6669 H       0      r0     0.0317
    906 C            2.2031    -7.1619    -4.7473 C       0      r0     0.0008
    907 C            2.6164    -9.8831    -4.9317 C       0      r0    -0.0314
    908 H            3.1318   -10.0199    -4.0353 H       0      r0     0.0783
    909 C            3.4402   -10.2292    -6.1707 C       0      r0     0.0180
    910 H            5.1739    -6.5505    -6.6673 H       0      r0     0.0209
    911 O            4.8811   -10.0874    -2.7782 O       5      r5    -0.5512
    912 C            5.0698    -7.4933    -6.1862 C       0      r0    -0.0116
    913 C            5.5841    -7.5252    -4.8829 C       0      r0    -0.0219
    914 H            5.4188    -8.5548    -4.2686 H       0      r0     0.0806
    915 C            5.7306    -6.3146    -4.1250 C       0      r0    -0.0160
    916 C            5.7986    -9.8764    -6.7797 C       0      r0     0.0074
    917 H            5.4544    -6.6428    -2.9947 H       0      r0     0.0246
    918 C            7.3313   -10.2108    -6.1574 C       0      r0    -0.0307
    919 C            7.8682    -9.8949    -2.8310 C       0      r0     0.0202
    920 H            7.8051    -9.2587    -5.8682 H       0      r0     0.0235
    921 C            8.1384    -8.6924    -3.2436 C       0      r0    -0.0041
    922 C            8.6335    -7.5624    -3.3432 C       0      r0    -0.0017
    923 C            8.9780    -6.7436    -4.7172 C       0      r0    -0.0248
    924 H            8.8688    -7.5085    -5.3868 H       0      r0     0.0208
    925 C           11.3908    -8.5863    -6.3007 C       5      r5    -0.0261
    926 C           11.7321    -9.3352    -5.1363 C       5      r5     0.0086
    927 H           11.7884    -7.6122    -6.3364 H       0      r0     0.0233
    928 C           13.1206    -9.1771    -4.5224 C       0      r0    -0.0243
    929 C           13.9471    -8.1526    -4.6316 C       0      r0     0.0001
    930 C           14.1316    -6.7482    -4.8145 C       0      r0    -0.0093
    931 H           15.2159   -10.2721    -5.7958 H       0      r0     0.0226
    932 C          -15.9876    -9.5061    -6.2049 C       0      r0    -0.0199
    933 C          -15.9736    -2.3949    -5.8270 C       0      r0     0.0155
    934 C          -15.4189    -3.7553    -5.3991 C       4      r4     0.0107
    935 C          -14.9816    -5.7261    -4.9084 C       4      r4    -0.0029
    936 C          -14.0875    -4.3522    -5.0748 C       4      r4     0.0070
    937 C          -12.7716    -4.1571    -5.5405 C       0      r0     0.0519
    938 H          -12.5399    -3.1033    -2.8079 H       0      r0     0.0647
    939 H          -11.1571    -5.4077    -4.1648 H       0      r0     0.0383
    940 C          -11.6655    -4.9291    -5.1482 C       0      r0    -0.0135
    941 C          -10.5990    -4.8243    -6.0257 C       0      r0     0.0224
    942 C          -10.4373    -3.7576    -2.2586 C       0      r0    -0.0156
    943 H          -10.6349    -3.8694    -3.3894 H       0      r0     0.0404
    944 C           -9.4425    -5.0014    -6.4877 C       0      r0    -0.0238
    945 H           -8.6467    -5.4317    -5.7591 H       0      r0     0.0202
    946 H           -7.9423    -3.6554    -3.0441 H       0      r0     0.0196
    947 C           -7.4048    -3.0942    -3.7737 C       5      r5    -0.0089
    948 H           -6.1875    -3.5000    -6.8704 H       0      r0     0.0126
    949 C           -5.8895    -3.2266    -3.5894 C       5      r5    -0.0347
    950 H           -5.7144    -3.0952    -2.5478 H       0      r0     0.0454
    951 H           -5.2026    -4.0419    -4.0875 H       0      r0     0.0505
    952 H           -3.5044    -5.0425    -4.8112 H       0      r0     0.0659
    953 C           -2.7582    -5.5542    -5.4127 C       0      r0     0.0006
    954 H           -2.5028    -4.8170    -6.1639 H       0      r0     0.0155
    955 C           -1.0216    -2.2084    -6.1659 C       0      r0    -0.0393
    956 O           -0.9966    -2.5207    -3.5403 O       5      r5    -0.4989
    957 C           -0.6351    -2.9549    -4.8989 C       5      r5     0.2703
    958 C            0.0427    -3.4769    -2.7996 C       5      r5     0.2054
    959 C            0.1984    -3.9968    -5.0298 C       5      r5    -0.0772
    960 H            0.6251    -4.1486    -6.0416 H       0      r0     0.0190
    961 C            0.6764    -4.1828    -3.7722 C       5      r5    -0.0337
    962 H            0.9455    -5.3278    -4.0372 H       0      r0     0.0275
    963 C            2.7289    -6.0214    -4.9957 C       0      r0    -0.0153
    964 H            3.2975    -4.9621    -2.6205 H       0      r0     0.0165
    965 C            3.6645    -4.9885    -5.4930 C       0      r0     0.0011
    966 C            4.6526    -2.8454    -4.8353 C       0      r0    -0.0013
    967 C            4.8338    -4.0453    -4.9140 C       0      r0    -0.0032
    968 C            5.2416    -3.9718    -2.6397 C       0      r0     0.0082
    969 H            5.7194    -4.1594    -6.6981 H       0      r0     0.0171
    970 C            5.8688    -4.7636    -3.9408 C       0      r0    -0.0210
    971 C            6.6242    -3.2440    -2.5209 C       0      r0    -0.0004
    972 H            6.7156    -4.9291    -4.6625 H       0      r0     0.0217
    973 C            7.8343    -2.6615    -2.4262 C       0      r0    -0.0244
    974 C            9.1317    -2.2167    -4.9149 C       0      r0    -0.0255
    975 C            9.5776    -5.7368    -4.7291 C       0      r0     0.0044
    976 C            9.8853    -3.3709    -5.3922 C       0      r0     0.0089
    977 C           10.0451    -4.5800    -4.5645 C       0      r0    -0.0060
    978 C           10.7150    -2.8724    -6.5724 C       0      r0    -0.0374
    979 C           11.3743    -4.9699    -3.7878 C       0      r0    -0.0207
    980 H           10.8487    -5.2036    -2.7649 H       0      r0     0.0215
    981 H           11.5759    -3.2650    -6.8930 H       0      r0     0.0259
    982 C           12.4611    -4.8898    -4.5557 C       0      r0     0.0050
    983 C           13.5253    -4.3811    -5.1013 C       0      r0    -0.0223
    984 H           13.1494    -3.8024    -5.9892 H       0      r0     0.0196
    985 C           14.4937    -5.5255    -5.4190 C       0      r0    -0.0029
    986 H           15.6416    -5.7032    -2.7217 H       0      r0     0.0229
    987 C           15.8849    -4.9637    -5.2024 C       4      r4    -0.0108
    988 H          -15.6346    -1.4410    -2.6589 H       0      r0     0.0589
    989 H          -15.2028     0.7651    -4.9861 H       0      r0     0.0366
    990 C          -14.3150     1.4914    -4.2685 C       0      r0    -0.0457
    991 C          -14.0246     0.5454    -3.0665 C       0      r0     0.2218
    992 C          -14.0553     0.7818    -6.7460 C       0      r0    -0.0047
    993 O          -13.6120    -0.8960    -3.3790 O       0      r0    -0.4548
    994 C          -13.0578     1.7370    -6.2221 C       0      r0    -0.0128
    995 H          -11.7444     1.6499    -3.6875 H       0      r0     0.0275
    996 O          -11.4513    -1.5312    -4.8352 O       3      r3    -0.4193
    997 H          -11.5955     0.0193    -2.8014 H       0      r0     0.0735
    998 C          -11.1280     0.8080    -3.5372 C       0      r0    -0.0428
    999 C          -10.8673    -0.0020    -4.7411 C       3      r3     0.1116
   1000 C          -10.8094    -0.8676    -5.9346 C       3      r3     0.2022
   1001 C           -9.8682     1.1989    -2.6377 C       0      r0     0.0003
   1002 H           -8.7560    -1.7570    -4.9094 H       0      r0     0.0311
   1003 C           -7.7345    -2.0667    -4.6406 C       5      r5    -0.0176
   1004 H           -7.2170     0.5553    -4.7870 H       0      r0     0.0197
   1005 C           -7.3385     1.2980    -5.5114 C       5      r5    -0.0276
   1006 H           -6.0783    -1.1559    -6.0782 H       0      r0     0.0147
   1007 C           -6.4104    -1.8086    -5.2815 C       5      r5    -0.0229
   1008 C           -5.3337    -1.9107    -4.2672 C       5      r5     0.0194
   1009 C           -4.7344     1.7467    -5.0611 C       0      r0    -0.0206
   1010 C           -5.0159    -0.5178    -4.2165 C       0      r0     0.0020
   1011 C           -4.7414     0.7800    -4.0543 C       0      r0    -0.0046
   1012 C           -3.2262     0.5111    -3.3180 C       0      r0     0.0077
   1013 H           -2.1020     0.7282    -5.2871 H       0      r0     0.0225
   1014 C           -2.1197     0.6183    -4.2296 C       0      r0     0.0416
   1015 C           -1.4983     1.8331    -3.5908 C       5      r5    -0.0734
   1016 H           -0.2900    -0.6307    -2.6590 H       0      r0     0.3101
   1017 H           -0.0233    -0.4328    -6.0888 H       0      r0     0.0625
   1018 C           -0.2784     1.4820    -3.3213 C       5      r5     0.2396
   1019 O            0.2432    -0.0289    -3.2403 O       0      r0    -0.5476
   1020 C            3.9255    -0.0653    -6.0827 C       0      r0     0.0129
   1021 C            4.5352    -1.5373    -4.7985 C       0      r0     0.0332
   1022 C            4.5760    -0.1046    -4.8246 C       0      r0    -0.0066
   1023 H            4.6117     0.6574    -4.1796 H       0      r0     0.0702
   1024 C            6.9478     1.7134    -5.6060 C       5      r5     0.0183
   1025 C            6.8529     2.0035    -2.6180 C       0      r0     0.0017
   1026 H            7.0687    -1.7051    -6.2684 H       0      r0     0.0160
   1027 H            7.8626     0.1063    -5.8414 H       0      r0     0.0137
   1028 C            7.8823     1.2472    -4.9275 C       0      r0    -0.0131
   1029 C            8.6828     1.2829    -3.6086 C       0      r0    -0.0013
   1030 C            8.7937    -2.0422    -3.4268 C       0      r0     0.0014
   1031 H            8.9206    -1.2902    -5.3923 H       0      r0     0.0168
   1032 C            9.9672    -1.6930    -2.6012 C       0      r0    -0.0071
   1033 H           10.5702    -1.7504    -6.4639 H       0      r0     0.0205
   1034 H           11.9020     1.2385    -6.1895 H       0      r0     0.0159
   1035 C           12.2267     2.0100    -3.2990 C       7      r7    -0.0178
   1036 H           12.1349    -0.2485    -4.9492 H       0      r0     0.0140
   1037 C           12.6166     0.6472    -6.7240 C       7      r7    -0.0174
   1038 H           12.0662     1.0832    -3.5690 H       0      r0     0.0174
   1039 H           12.8658    -0.6185    -2.5679 H       0      r0     0.0153
   1040 C           12.8666    -0.3050    -5.8318 C       7      r7    -0.0169
   1041 H           14.1355    -2.8287    -3.5240 H       0      r0     0.0186
   1042 C           13.8312    -1.4102    -6.0005 C       7      r7    -0.0052
   1043 C           14.7754    -2.0047    -3.7969 C       0      r0    -0.0039
   1044 C           15.0212    -1.7251    -5.3419 C       0      r0     0.0007
   1045 C           15.3856    -1.3363    -2.7825 C       0      r0    -0.0356
   1046 C          -15.4770     4.8377    -2.5437 C       6      r6    -0.0048
   1047 H          -15.0265     2.5435    -4.2290 H       0      r0     0.0113
   1048 C          -13.9115     5.5757    -6.4283 C       0      r0     0.0399
   1049 C          -13.4481     2.4631    -5.0324 C       0      r0    -0.0145
   1050 H          -12.8694     3.5065    -4.9065 H       0      r0     0.0088
   1051 H          -13.4579     4.5560    -5.9976 H       0      r0     0.0052
   1052 C          -11.9490     5.7161    -3.0424 C       6      r6     0.0027
   1053 H          -11.0819     4.0799    -4.2271 H       0      r0     0.0158
   1054 C          -10.8831     5.0363    -3.7353 C       6      r6    -0.0235
   1055 H          -10.8303     2.0405    -5.1354 H       0      r0     0.0100
   1056 C          -10.0930     5.9389    -4.4091 C       6      r6     0.0008
   1057 C           -9.8161     2.3772    -4.8668 C       0      r0    -0.0255
   1058 C           -9.3972     5.4919    -5.8781 C       0      r0    -0.0089
   1059 C           -9.2918     2.2268    -3.4163 C       0      r0    -0.0118
   1060 C           -8.7352     4.5480    -5.7304 C       0      r0    -0.0126
   1061 C           -8.6677     2.0185    -5.6021 C       5      r5    -0.0021
   1062 H           -8.6328     2.8975    -2.5952 H       0      r0     0.0212
   1063 C           -8.0301     3.4802    -5.5698 C       5      r5    -0.0036
   1064 C           -6.4591     3.3971    -5.9431 C       5      r5     0.0012
   1065 C           -6.0417     1.8090    -5.9953 C       5      r5    -0.0024
   1066 H           -5.7885     5.4596    -5.6770 H       0      r0     0.0250
   1067 C           -5.4618     4.4426    -5.3612 C       0      r0    -0.0348
   1068 H           -5.2153     2.7866    -2.8160 H       0      r0     0.0221
   1069 H           -4.2891     4.2716    -5.3886 H       0      r0     0.0232
   1070 H           -3.9876     2.4419    -4.5152 H       0      r0     0.0180
   1071 C           -2.2898     3.4601    -6.7541 C       0      r0    -0.0407
   1072 C           -2.1016     4.7723    -3.9493 C       5      r5    -0.0001
   1073 C           -2.2841     4.8040    -6.5290 C       6      r6     0.1805
   1074 C           -2.0687     6.0043    -3.0262 C       5      r5    -0.0166
   1075 C           -2.1155     5.3339    -5.2609 C       6      r6    -0.0523
   1076 C           -1.3499     3.5102    -3.4799 C       5      r5    -0.0049
   1077 C           -0.2147     3.9006    -2.8636 C       5      r5    -0.0188
   1078 H           -0.1697     5.1649    -2.6365 H       0      r0     0.0132
   1079 C            0.4081     2.6839    -2.5580 C       5      r5    -0.0277
   1080 C            1.8915     2.6329    -2.3917 C       0      r0     0.0145
   1081 C            2.7030     2.9442    -3.4226 C       0      r0     0.0196
   1082 C            3.0091     6.1907    -5.7926 C       0      r0    -0.0310
   1083 C            3.3288     2.7429    -5.7263 C       5      r5     0.0032
   1084 C            3.7710     3.1532    -4.2443 C       5      r5    -0.0067
   1085 H            3.8871     5.5345    -5.6588 H       0      r0     0.0146
   1086 C            4.6184     2.6119    -6.2951 C       5      r5    -0.0006
   1087 C            5.0737     2.6508    -4.0512 C       5      r5    -0.0065
   1088 C            5.6244     2.4305    -2.6557 C       0      r0     0.0313
   1089 H            5.2036     3.5669    -2.4657 H       0      r0     0.0108
   1090 C            5.9973     2.9850    -5.2930 C       5      r5    -0.0076
   1091 H            6.0950     4.1891    -5.3533 H       0      r0     0.0259
   1092 H            8.1229     3.7962    -3.6497 H       0      r0     0.0405
   1093 C            8.1795     2.2068    -2.5098 C       0      r0    -0.0263
   1094 C            8.6848     4.8187    -3.9660 C       5      r5    -0.0918
   1095 C            9.2646     5.9382    -2.9486 C       5      r5    -0.0098
   1096 H            9.6944     2.8987    -5.7932 H       0      r0     0.3499
   1097 C            9.5026     4.8243    -4.9846 C       5      r5     0.2910
   1098 O            9.5651     3.6794    -6.0094 O       0      r0    -0.7244
   1099 C           10.3339     6.1752    -4.8969 C       5      r5    -0.0743
   1100 H           11.4844     3.7444    -3.2222 H       0      r0     0.0152
   1101 H           11.5592     3.1977    -6.8011 H       0      r0     0.0637
   1102 C           12.0852     3.2561    -4.1020 C       7      r7    -0.0065
   1103 C           13.4327     3.5450    -4.7081 C       7      r7    -0.0181
   1104 H           13.5340     4.0975    -5.6472 H       0      r0     0.0202
   1105 C           14.5636     3.4252    -3.8069 C       7      r7    -0.0204
   1106 C           14.4474     2.9352    -2.3355 C       6      r6    -0.0022
   1107 H           15.5373     3.8784    -4.1049 H       0      r0     0.0179
   1108 C           15.9093     5.9660    -2.6216 C       0      r0    -0.0008
   1109 C          -15.7511     8.5801    -2.8593 C       0      r0    -0.0285
   1110 O          -15.0369     9.2709    -6.2002 O       0      r0    -0.4691
   1111 H          -15.0961     8.2668    -3.7422 H       0      r0     0.0753
   1112 C          -12.9356     6.4508    -6.6420 C       0      r0    -0.0214
   1113 H          -12.8597     9.0250    -3.0459 H       0      r0     0.0354
   1114 C          -11.7526     7.2013    -2.8737 C       6      r6    -0.0093
   1115 C          -10.4212     7.7353    -3.0962 C       6      r6     0.0047
   1116 H          -10.2043    10.0210    -6.8004 H       0      r0     0.0559
   1117 C           -9.8322     8.9079    -2.1896 C       6      r6     0.0023
   1118 C           -9.3766     7.1716    -4.0026 C       6      r6    -0.0003
   1119 H           -9.5331     7.5526    -6.6593 H       0      r0     0.0280
   1120 H           -7.9980     9.9614    -4.1504 H       0      r0     0.0144
   1121 C           -7.9176     7.2793    -4.5799 C       7      r7    -0.0191
   1122 C           -7.4214     9.4376    -3.2317 C       5      r5    -0.0176
   1123 H           -7.5148     6.1614    -4.6263 H       0      r0     0.0186
   1124 C           -6.9623     7.9813    -3.8036 C       7      r7    -0.0198
   1125 H           -5.8178     7.6826    -3.7349 H       0      r0     0.0145
   1126 H           -4.5523     9.4198    -3.0328 H       0      r0     0.0131
   1127 H           -1.8278     9.7228    -3.9480 H       0      r0     0.0215
   1128 C           -2.3171     7.7431    -5.9773 C       6      r6    -0.0734
   1129 C           -2.5042     9.2341    -6.0049 C       5      r5     0.2258
   1130 C           -2.2489    10.0483    -4.9053 C       0      r0    -0.0721
   1131 C           -1.8437     6.9412    -4.9734 C       6      r6     0.0353
   1132 C           -1.5284     7.1964    -3.5553 C       5      r5    -0.0278
   1133 H           -1.4251     8.2044    -3.0317 H       0      r0     0.0127
   1134 H            1.6257     6.4503    -4.4698 H       0      r0     0.0131
   1135 C            1.9885     6.8882    -5.4741 C       0      r0    -0.0138
   1136 C            1.9529     8.3773    -5.9225 C       0      r0     0.0014
   1137 C            1.9632     9.3979    -6.3852 C       0      r0     0.0024
   1138 C            5.2269     8.3790    -4.0977 C       5      r5    -0.0131
   1139 C            5.0991     7.8295    -5.4780 C       5      r5    -0.0140
   1140 H            4.6672     7.7702    -3.2368 H       0      r0     0.0113
   1141 H            5.3567     6.6980    -5.6669 H       0      r0     0.0154
   1142 C            5.2668     8.8832    -6.3161 C       5      r5    -0.0110
   1143 C            5.6162    10.0451    -5.3519 C       5      r5    -0.0017
   1144 C            5.5576     9.6002    -3.9633 C       5      r5     0.0125
   1145 H            8.2980     6.6276    -2.7944 H       0      r0     0.0283
   1146 C            8.2728     8.7360    -6.6484 C       0      r0    -0.0195
   1147 H            8.7869     8.3708    -5.7300 H       0      r0     0.0152
   1148 C           10.0306     8.9458    -2.8703 C       3      r3     0.1434
   1149 C           10.3062     6.7593    -3.6705 C       5      r5     0.0048
   1150 C           10.9626     7.7062    -2.7215 C       0      r0    -0.0378
   1151 H           10.6672     6.7198    -5.7621 H       0      r0     0.0323
   1152 H           10.9155    10.1017    -6.4419 H       0      r0     0.0102
   1153 C           11.8525    10.2448    -5.7289 C       0      r0    -0.0257
   1154 H           12.7176     6.9250    -5.6169 H       0      r0     0.0156
   1155 C           12.9661     9.6629    -5.5636 C       0      r0    -0.0195
   1156 C           13.1474     7.4362    -6.4813 C       0      r0     0.0133
   1157 C           13.5501     8.7865    -6.6931 C       0      r0    -0.0282
   1158 H           13.2500    10.2314    -4.7111 H       0      r0     0.0182
   1159 H           14.2240     9.8926    -3.4784 H       0      r0     0.0217
   1160 H           14.5451     7.8145    -3.1298 H       0      r0     0.0226
   1161 C           15.5697     7.3096    -2.8572 C       0      r0    -0.0144
   1162 C           15.8446    10.0223    -2.7102 C       6      r6     0.0065
   1163 C          -15.6512    12.5230    -2.5475 C       6      r6    -0.0069
   1164 C          -15.3211    11.1913    -2.5986 C       6      r6     0.0104
   1165 C          -15.2733    14.0203    -2.4492 C       5      r5     0.0011
   1166 H          -15.7064    13.1693    -5.4966 H       0      r0     0.0282
   1167 C          -15.0259    13.9611    -5.5702 C       0      r0    -0.0222
   1168 C          -13.7286    11.0227    -2.4990 C       6      r6    -0.0086
   1169 C          -13.5817    13.8320    -5.3173 C       6      r6     0.0072
   1170 H          -12.9409    11.4619    -3.0812 H       0      r0     0.0226
   1171 H          -12.9707    11.5824    -4.9693 H       0      r0     0.0531
   1172 C          -12.7155    12.7135    -5.1280 C       6      r6    -0.0211
   1173 C          -11.5536    13.0829    -5.8188 C       6      r6     0.0002
   1174 C          -11.1743    14.3447    -6.7331 C       6      r6    -0.0049
   1175 C          -10.4467    12.1790    -5.6712 C       0      r0     0.0097
   1176 C           -9.6728    10.9961    -6.5812 C       0      r0    -0.0273
   1177 C           -9.5798    12.2701    -4.5220 C       0      r0    -0.0204
   1178 H           -9.1139    11.3541    -4.2506 H       0      r0     0.0193
   1179 C           -9.0933    13.3353    -3.6467 C       0      r0    -0.0215
   1180 H           -8.3723    13.4249    -3.0318 H       0      r0     0.0209
   1181 H           -7.7586    13.2113    -6.1834 H       0      r0     0.0198
   1182 H           -7.1531    13.5644    -4.4425 H       0      r0     0.0198
   1183 C           -6.8373    13.4962    -5.5284 C       0      r0    -0.0396
   1184 C           -6.4943    10.4704    -2.7393 C       5      r5    -0.0085
   1185 C           -5.5113    14.1994    -6.1900 C       0      r0    -0.0040
   1186 H           -4.7045    12.5810    -3.3513 H       0      r0     0.0249
   1187 C           -4.9810    10.4587    -3.0956 C       0      r0    -0.0217
   1188 C           -4.3779    11.6220    -3.4013 C       0      r0    -0.0166
   1189 C           -3.8936    14.1934    -5.9551 C       0      r0    -0.0039
   1190 C           -3.6535    14.3300    -4.7486 C       0      r0    -0.0092
   1191 H           -3.7352    11.6169    -6.1817 H       0      r0     0.0445
   1192 C           -3.0863    14.2615    -3.4097 C       0      r0    -0.0481
   1193 C           -2.9771    11.9183    -3.9500 C       0      r0    -0.0169
   1194 C           -2.7941    11.3885    -5.4405 C       0      r0     0.0094
   1195 C           -2.4012    12.9914    -3.1187 C       0      r0     0.0327
   1196 H           -1.7492    11.8058    -5.6421 H       0      r0     0.0302
   1197 H           -0.2895    11.3208    -4.4181 H       0      r0     0.0204
   1198 C           -0.1130    13.3423    -3.2655 C       7      r7    -0.0005
   1199 C            0.3517    12.3114    -4.2359 C       7      r7    -0.0180
   1200 C            1.1108    11.8502    -6.8661 C       0      r0    -0.0148
   1201 C            1.2290    12.7745    -5.2310 C       7      r7    -0.0094
   1202 C            1.9500    13.7128    -5.0725 C       7      r7     0.0601
   1203 C            2.2464    10.8992    -6.3008 C       0      r0     0.0002
   1204 C            3.4191    11.2117    -5.9017 C       0      r0     0.0193
   1205 O            4.4157    13.7471    -4.1897 O       6      r6    -0.4850
   1206 C            4.7855    11.2443    -5.4053 C       0      r0     0.0022
   1207 H            5.2424    12.1242    -5.7010 H       0      r0     0.0630
   1208 C            5.7805    10.3839    -2.6727 C       0      r0     0.0139
   1209 C            5.7666    14.0212    -3.3629 C       6      r6     0.2136
   1210 C            6.0906    11.6345    -3.0518 C       0      r0     0.0457
   1211 C            6.6455    13.0099    -3.1925 C       6      r6    -0.0385
   1212 C            7.7642    12.8033    -4.9498 C       6      r6     0.0126
   1213 H            8.1244    10.6949    -4.6410 H       0      r0     0.0413
   1214 C            7.9203    13.7745    -6.1547 C       6      r6     0.0081
   1215 C            8.1841    13.1678    -3.3963 C       6      r6    -0.0202
   1216 C            7.8922    11.5228    -5.1761 C       6      r6    -0.0291
   1217 C            8.0633    11.3010    -6.7127 C       6      r6     0.0016
   1218 H            8.6575    12.2821    -3.2162 H       0      r0     0.0712
   1219 C            9.9663    10.2065    -3.5849 C       3      r3     0.1911
   1220 C           11.2725    10.7849    -3.7670 C       5      r5    -0.0864
   1221 C           11.6980    11.4953    -4.8500 C       5      r5    -0.0078
   1222 C           12.2742    13.5245    -6.4195 C       0      r0    -0.0235
   1223 C           12.0127    11.3732    -2.5947 C       5      r5     0.3153
   1224 C           12.5246    12.6812    -4.3593 C       5      r5     0.0009
   1225 C           12.6630    12.6431    -2.9276 C       5      r5    -0.0843
   1226 C           12.9233    13.8709    -5.0442 C       0      r0    -0.0013
   1227 H           13.7754    11.4913    -5.7546 H       0      r0     0.0191
   1228 H           13.4459    12.7584    -2.0390 H       0      r0     0.0344
   1229 H           14.7049    13.3875    -6.2829 H       0      r0     0.0181
   1230 C           14.6831    12.1901    -5.9906 C       0      r0    -0.0570
   1231 C           14.9151    10.6365    -3.7304 C       6      r6    -0.0146
   1232 C           15.2139    14.2774    -3.9354 C       5      r5    -0.0055
   1233 C           14.9884    11.7914    -4.5019 C       6      r6     0.0094
   1234 H           15.5053    11.5699    -6.5098 H       0      r0     0.0252
   1235 C           15.4804    12.8676    -3.6861 C       6      r6    -0.0062
   1236 C          -15.7062   -12.0462     1.6006 C       5      r5     0.0101
   1237 H          -14.8014   -12.7781    -0.8530 H       0      r0     0.0294
   1238 C          -14.9348   -10.7641     1.3443 C       0      r0    -0.0236
   1239 H          -13.6658    14.2171     0.3582 H       0      r0     0.0203
   1240 C          -13.8828   -13.0891    -1.2508 C       0      r0    -0.0539
   1241 H          -13.6396   -12.3715    -2.0951 H       0      r0     0.0192
   1242 H          -12.8721   -12.7551    -0.7774 H       0      r0     0.0224
   1243 H          -12.9202   -12.7523     1.8916 H       0      r0     0.0171
   1244 C          -12.6721   -13.8535     2.1908 C       6      r6    -0.0173
   1245 H          -11.6392   -13.6924    -2.3316 H       0      r0     0.0220
   1246 C          -11.6470   -13.9501    -1.4391 C       0      r0    -0.0215
   1247 C          -10.5836   -13.2201    -0.4469 C       0      r0    -0.0201
   1248 H          -10.2670   -10.9562    -0.0946 H       0      r0     0.0155
   1249 C          -10.2773   -13.5696     0.7110 C       0      r0    -0.0056
   1250 H          -10.1372   -12.5571    -1.0924 H       0      r0     0.0199
   1251 H           -8.3992   -11.7701     0.0479 H       0      r0     0.0160
   1252 C           -7.4739   -12.2275     0.1101 C       0      r0    -0.0392
   1253 H           -7.3394   -12.0546     1.2266 H       0      r0     0.0142
   1254 C           -7.2512   -13.5483    -0.5194 C       6      r6     0.0104
   1255 C           -6.9983   -13.8368    -1.9387 C       6      r6    -0.0089
   1256 C           -6.0199   -11.2617     0.1922 C       0      r0     0.0009
   1257 C           -4.9200   -12.7179     1.8424 C       0      r0    -0.0037
   1258 C           -4.7187   -11.8863     0.5098 C       0      r0    -0.0441
   1259 H           -4.0817   -12.7952    -0.0403 H       0      r0     0.1040
   1260 H           -3.8902   -11.0323     0.4831 H       0      r0     0.0249
   1261 O           -2.8070   -13.6462    -1.1155 O       5      r5    -0.4620
   1262 C           -2.5304   -11.8095    -1.3148 C       5      r5     0.1084
   1263 H           -2.0666   -12.0213     2.4660 H       0      r0     0.0240
   1264 C           -1.6215   -11.4770    -0.3368 C       0      r0     0.0130
   1265 C           -0.6268   -11.3922     0.3793 C       0      r0     0.0186
   1266 H           -0.0835   -13.8511    -1.8692 H       0      r0     0.0440
   1267 C           -0.2141   -11.2514     1.5385 C       0      r0    -0.0212
   1268 C            1.3001   -10.8522     1.3449 C       0      r0     0.0086
   1269 C            1.7064   -11.6145     0.0918 C       0      r0    -0.0001
   1270 H            3.5214   -11.7793     1.1780 H       0      r0     0.0536
   1271 C            3.2824   -11.4446     0.1488 C       0      r0    -0.0208
   1272 H            3.5802   -12.5120    -0.3356 H       0      r0     0.0198
   1273 H            3.8749   -14.0979    -0.4592 H       0      r0     0.0088
   1274 H            4.7274   -12.3931    -1.1319 H       0      r0     0.0114
   1275 C            5.3039   -11.4234    -0.5252 C       5      r5    -0.0244
   1276 C            6.0558   -13.4213     1.0095 C       0      r0    -0.0145
   1277 C            6.0957   -12.1016     0.5386 C       0      r0    -0.0010
   1278 H            7.0852   -13.3207     1.6421 H       0      r0     0.0179
   1279 C            7.1946   -11.0579     0.8357 C       0      r0    -0.0040
   1280 C            8.0658   -11.9834    -2.0046 C       6      r6    -0.0185
   1281 C            8.5392   -11.6262     0.4543 C       0      r0    -0.0074
   1282 C            9.0044   -11.4273    -0.9735 C       0      r0    -0.0109
   1283 C            9.1735   -12.0049     1.7170 C       0      r0     0.0071
   1284 C           10.4806   -11.0127    -1.0539 C       0      r0    -0.0095
   1285 C           10.4292   -11.5564     1.8458 C       0      r0    -0.0090
   1286 H           11.0936   -13.8358    -0.3752 H       0      r0     0.0223
   1287 H           10.5563   -11.7910    -1.9831 H       0      r0     0.0167
   1288 H           10.9343   -13.4949    -2.1672 H       0      r0     0.0073
   1289 C           11.7420   -10.8509     1.7915 C       0      r0    -0.0124
   1290 C           12.8194   -13.3113     1.9914 C       0      r0    -0.0014
   1291 H           14.0946   -14.0709    -2.1587 H       0      r0     0.0380
   1292 O           14.7380   -10.8607    -2.1299 O       0      r0    -0.5584
   1293 C           14.8699   -13.8983     1.2102 C       5      r5     0.0122
   1294 H           15.4505   -12.2323    -0.4509 H       0      r0     0.0822
   1295 C           15.7064   -12.8037     0.4112 C       5      r5    -0.0356
   1296 C          -16.0074    -6.2385     0.4262 C       0      r0    -0.0100
   1297 H          -15.0351   -10.2920     0.1926 H       0      r0     0.0311
   1298 H          -13.9314    -9.0607    -0.4433 H       0      r0     0.0284
   1299 C          -13.4198    -8.9702    -1.4187 C       5      r5    -0.0792
   1300 H          -12.5976    -7.1878    -0.0250 H       0      r0     0.0274
   1301 C          -12.2995    -8.4293    -1.6797 C       5      r5     0.2739
   1302 C          -11.9921    -7.3640    -0.7593 C       0      r0    -0.0823
   1303 C          -11.1394    -9.2579     2.2235 C       0      r0    -0.0205
   1304 C          -10.8089    -9.4082     0.9767 C       0      r0    -0.0050
   1305 C          -10.6110    -7.1634    -0.7640 C       0      r0     0.0204
   1306 C          -10.4726    -9.8312    -0.2519 C       0      r0    -0.0283
   1307 H          -10.5544    -6.4955     1.8275 H       0      r0     0.0117
   1308 C           -9.8843    -9.2243    -1.6462 C       5      r5     0.0338
   1309 C           -9.7853    -7.8949    -1.6048 C       5      r5     0.0251
   1310 C           -8.7102    -7.5145    -2.2819 C       5      r5     0.0111
   1311 C           -7.4548    -6.9567    -1.9875 C       5      r5    -0.0130
   1312 H           -7.6764    -6.4925     0.1561 H       0      r0     0.0082
   1313 C           -7.1189    -6.3499    -0.8400 C       5      r5    -0.0195
   1314 H           -6.8987    -8.1548    -0.7813 H       0      r0     0.0188
   1315 C           -5.8877   -10.0909     0.0426 C       0      r0    -0.0089
   1316 C           -6.0551    -8.8285    -0.5481 C       0      r0    -0.0412
   1317 C           -5.2777    -6.9759    -2.4311 C       5      r5     0.2580
   1318 H           -5.3028    -8.4275    -0.0079 H       0      r0     0.0321
   1319 C           -4.4180    -6.4805     0.7637 C       0      r0     0.0001
   1320 C           -3.6659    -6.9590     1.9329 C       0      r0    -0.0162
   1321 O           -1.1809    -8.0476    -1.6493 O       0      r0    -0.4530
   1322 H           -1.0049    -6.6662     0.0430 H       0      r0    -0.0217
   1323 C           -0.5702    -7.3163    -0.8499 C       0      r0     0.3193
   1324 C            1.0089    -7.3891    -0.6660 C       0      r0    -0.0618
   1325 H            1.1845    -9.9185    -2.0869 H       0      r0     0.0449
   1326 C            2.0244    -7.2938    -0.9244 C       0      r0     0.0141
   1327 C            3.6194    -7.3347    -1.0583 C       0      r0     0.0191
   1328 C            3.9086    -8.5721    -1.2298 C       0      r0    -0.0503
   1329 C            4.3373    -9.8129    -1.4549 C       5      r5     0.2672
   1330 H            4.2302    -6.4407     0.7456 H       0      r0     0.0728
   1331 H            5.0160    -9.7941     0.5362 H       0      r0     0.0458
   1332 C            4.4507   -10.4168    -0.2652 C       5      r5    -0.0865
   1333 C            4.4374    -6.3178    -0.2391 C       0      r0    -0.0768
   1334 H            5.4773    -6.3805    -0.3758 H       0      r0     0.0307
   1335 H            6.0918    -8.0763     0.7278 H       0      r0     0.0428
   1336 C            7.0800    -9.6281     1.0302 C       0      r0     0.0245
   1337 C            6.9945    -8.4283     1.2560 C       0      r0    -0.0389
   1338 H            7.7221    -6.4136     0.9591 H       0      r0     0.0446
   1339 H            7.6639    -7.7712     1.9581 H       0      r0     0.0954
   1340 C            8.3713    -7.0148    -0.7177 C       6      r6    -0.0155
   1341 C            8.6856    -6.5544     0.5400 C       6      r6     0.0191
   1342 C            8.9856    -7.2621    -1.9382 C       6      r6     0.0011
   1343 H           10.0688    -8.9836    -0.4616 H       0      r0     0.0277
   1344 C           10.7053    -6.7589    -1.8716 C       6      r6    -0.0075
   1345 C           10.8455    -9.7240    -0.6436 C       0      r0    -0.0096
   1346 C           11.2463    -8.0886    -1.9366 C       0      r0     0.0003
   1347 C           11.8327    -9.2410    -1.8925 C       0      r0    -0.0131
   1348 C           11.8891   -10.0741     0.5754 C       0      r0     0.0199
   1349 H           12.3004    -7.1410     1.3142 H       0      r0     0.0253
   1350 H           13.0743    -6.2600    -0.6305 H       0      r0     0.0243
   1351 C           12.9539    -9.0980     0.3040 C       0      r0     0.0007
   1352 H           12.8663    -9.7237    -2.3853 H       0      r0     0.0746
   1353 C           13.8117    -7.0518    -0.1965 C       0      r0    -0.0278
   1354 C           13.8967    -8.5100     0.0208 C       0      r0     0.0305
   1355 C           15.0337    -6.4228    -0.7534 C       0      r0     0.0050
   1356 C           14.8611    -6.1731    -2.1025 C       0      r0    -0.0215
   1357 C           15.8745    -7.2341     1.1918 C       0      r0     0.0011
   1358 C           15.7563    -8.0517     2.2309 C       0      r0    -0.0217
   1359 C          -15.1924    -4.6296     2.2102 C       0      r0    -0.0066
   1360 C          -15.1198    -5.0544     0.8576 C       0      r0    -0.0081
   1361 C          -14.1300    -4.1320     0.1434 C       0      r0    -0.0066
   1362 H          -13.6265    -5.4486    -1.7314 H       0      r0     0.0257
   1363 C          -13.8802    -4.3773    -1.4703 C       0      r0     0.0017
   1364 C          -13.3319    -3.5698     1.1271 C       0      r0    -0.0126
   1365 C          -13.3976    -3.3196    -1.9554 C       0      r0    -0.0511
   1366 C          -12.5746    -2.9911     2.1368 C       7      r7     0.0018
   1367 H          -11.3296    -2.4877    -0.8594 H       0      r0     0.0210
   1368 H          -11.0906    -5.5064     0.0626 H       0      r0     0.0207
   1369 C          -10.7009    -2.2703    -1.6463 C       0      r0    -0.0506
   1370 C          -10.1440    -5.7795    -0.4837 C       0      r0    -0.0385
   1371 C           -9.7081    -4.8310    -1.6316 C       0      r0     0.0019
   1372 H           -9.4124    -5.7365     0.3563 H       0      r0     0.0119
   1373 C           -8.4589    -2.1503    -0.2425 C       0      r0    -0.0081
   1374 C           -8.1662    -2.4824     0.8839 C       0      r0    -0.0177
   1375 C           -8.0493    -3.1796     1.9866 C       0      r0     0.0099
   1376 H           -6.8994    -4.8971     0.9600 H       0      r0     0.0137
   1377 C           -6.8551    -4.2884     1.8464 C       6      r6    -0.0133
   1378 H           -5.8532    -2.8940    -0.4085 H       0      r0     0.0038
   1379 C           -5.6460    -6.1970    -1.2030 C       5      r5    -0.0496
   1380 C           -5.1117    -2.8576     0.3619 C       6      r6     0.2212
   1381 C           -5.3817    -3.5609     1.4425 C       6      r6    -0.0727
   1382 C           -4.7280    -5.4892    -0.2228 C       0      r0     0.0375
   1383 O           -3.8138    -2.2984    -0.2898 O       6      r6    -0.5245
   1384 C           -2.9908    -3.3924     1.6475 C       6      r6    -0.0856
   1385 C           -2.7522    -2.7457     0.5887 C       6      r6     0.2847
   1386 H           -2.0265    -3.4433    -1.8459 H       0      r0     0.0932
   1387 C           -1.4232    -2.6960     0.2788 C       5      r5    -0.0652
   1388 C           -1.2038    -3.2736    -1.0622 C       0      r0     0.0269
   1389 C           -0.8270    -3.2685     1.3277 C       5      r5     0.0057
   1390 C            0.1032    -3.2939    -1.3717 C       0      r0    -0.0410
   1391 C            0.2281    -4.0452     1.8246 C       0      r0    -0.0179
   1392 C            1.2825    -4.6913     1.4146 C       0      r0    -0.0082
   1393 C            1.1762    -2.8735    -0.5881 C       6      r6     0.0221
   1394 C            2.3764    -4.9381     0.7179 C       0      r0    -0.0346
   1395 C            2.3748    -3.7293    -0.3913 C       6      r6    -0.0160
   1396 H            2.7694    -5.8051     1.3624 H       0      r0     0.0396
   1397 H            2.9576    -3.6232     1.8469 H       0      r0     0.0201
   1398 C            3.5596    -3.2821    -1.0645 C       6      r6     0.0086
   1399 C            3.9334    -2.1277    -0.1598 C       6      r6     0.0489
   1400 C            3.9717    -4.1149    -2.2078 C       0      r0    -0.0169
   1401 H            4.1151    -5.3445    -0.5103 H       0      r0     0.0247
   1402 C            5.1631    -2.7928     1.7997 C       0      r0    -0.0121
   1403 H            8.4156    -2.8691    -1.4794 H       0      r0     0.0180
   1404 H            9.0431    -4.3341     2.1999 H       0      r0     0.0507
   1405 H            9.3836    -2.2630     2.2586 H       0      r0     0.0179
   1406 C            9.8739    -5.7481     0.3230 C       6      r6     0.0109
   1407 C            9.9387    -4.8224     1.5223 C       5      r5    -0.0087
   1408 H           10.8020    -5.2261     2.3190 H       0      r0     0.0440
   1409 C           10.5522    -5.8768    -0.8498 C       6      r6    -0.0115
   1410 C           10.7703    -3.8149     0.4928 C       5      r5    -0.0241
   1411 C           11.2520    -4.4128    -0.6761 C       5      r5     0.0021
   1412 H           10.9382    -2.7896     1.1180 H       0      r0     0.0152
   1413 H           12.5804    -4.1618    -2.0828 H       0      r0     0.0218
   1414 C           12.7935    -2.0597    -0.8301 C       0      r0    -0.0048
   1415 C           12.7154    -4.3589    -1.0479 C       0      r0    -0.0221
   1416 C           13.2891    -3.2548    -0.3262 C       0      r0    -0.0200
   1417 H           13.9752    -3.2870     0.4257 H       0      r0     0.0166
   1418 H          -14.3583    -2.0301     0.0768 H       0      r0     0.0281
   1419 H          -14.9927    -0.4942    -0.9607 H       0      r0     0.0318
   1420 C          -14.2655    -1.3010    -0.7429 C       0      r0    -0.0828
   1421 C          -13.5382    -1.7141    -2.0867 C       0      r0     0.2110
   1422 C          -13.6546     1.0066    -1.9273 C       0      r0    -0.0564
   1423 C          -13.0599     1.2040    -0.4282 C       0      r0     0.0011
   1424 H          -11.9837    -0.8541     1.6135 H       0      r0     0.0178
   1425 C          -11.6374    -1.6582     2.3036 C       7      r7    -0.0365
   1426 H          -10.9618     2.1867    -0.8368 H       0      r0     0.0232
   1427 H          -11.0249    -1.7614    -2.4915 H       0      r0     0.0663
   1428 C          -10.0865     1.6019    -1.0688 C       0      r0    -0.0436
   1429 H          -10.0657    -2.2487     1.4317 H       0      r0     0.0203
   1430 H           -9.5192     0.8957    -0.5026 H       0      r0     0.0238
   1431 C           -9.1991    -1.8817    -1.2963 C       0      r0    -0.0165
   1432 H           -9.0547    -1.1339    -2.1942 H       0      r0     0.0181
   1433 C           -8.5208     0.5407     1.9669 C       0      r0    -0.0104
   1434 C           -7.6000     1.6807     0.3229 C       0      r0     0.0046
   1435 C           -7.3689     0.6423     1.3272 C       0      r0    -0.0137
   1436 C           -7.2560     1.2121    -1.1029 C       0      r0    -0.0274
   1437 H           -7.1854     0.3371    -1.5001 H       0      r0     0.0251
   1438 H           -7.1141    -0.4449     1.2252 H       0      r0     0.0252
   1439 H           -2.4346    -0.9523    -1.8881 H       0      r0     0.0866
   1440 C           -3.2569     1.8059    -0.4575 C       0      r0     0.0012
   1441 C           -2.6605     1.1669    -1.2562 C       0      r0     0.0109
   1442 C           -2.5318     0.0692    -2.0766 C       0      r0    -0.0071
   1443 H           -0.7209    -0.6031     0.5242 H       0      r0     0.0302
   1444 C            0.4417    -0.8697     0.8366 C       5      r5    -0.0088
   1445 H            0.6932     0.9367     2.0749 H       0      r0     0.0556
   1446 C            1.1761     0.0158     1.6131 C       5      r5    -0.0049
   1447 C            1.3665    -1.8435     0.2119 C       6      r6     0.0178
   1448 C            2.5217    -0.5404     1.7495 C       5      r5     0.0084
   1449 C            2.6797    -1.7312     0.5944 C       6      r6     0.0026
   1450 O            4.3958     0.0960    -1.6863 O       0      r0    -0.4516
   1451 C            5.2605    -1.6119    -0.1626 C       0      r0    -0.0587
   1452 C            5.3981    -0.3925    -1.0485 C       0      r0     0.3101
   1453 H            6.0927     0.1292    -0.4980 H       0      r0    -0.0336
   1454 C            5.7920    -1.7424     1.0788 C       0      r0    -0.0119
   1455 H            6.1623    -0.7367     1.2702 H       0      r0     0.0145
   1456 H            7.5362     1.1514     0.4360 H       0      r0     0.0269
   1457 C            8.4100    -0.3712     2.1558 C       0      r0     0.0010
   1458 C            8.5332     1.2915     0.1949 C       0      r0    -0.0410
   1459 C            9.1189     0.5098     1.0126 C       0      r0    -0.0170
   1460 H           10.1541     0.5323     0.9489 H       0      r0     0.0184
   1461 H           10.0611    -0.5817    -0.7799 H       0      r0     0.0144
   1462 C           10.8336    -0.9650    -1.6902 C       0      r0    -0.0183
   1463 H           11.0760     1.3979    -1.5263 H       0      r0     0.0173
   1464 C           12.2216    -1.3574    -1.9227 C       0      r0    -0.0185
   1465 C           12.2277     1.9530     1.9941 C       0      r0    -0.0181
   1466 H           12.4292     0.3245     0.8860 H       0      r0     0.0144
   1467 C           13.3153     1.2612     1.0727 C       0      r0    -0.0052
   1468 C           13.8361     1.8807    -0.1872 C       6      r6    -0.0003
   1469 C           14.4650     0.4757     1.8233 C       0      r0    -0.0177
   1470 H           14.8579    -0.6561     1.6019 H       0      r0     0.0139
   1471 H           14.6143    -1.1352    -1.9417 H       0      r0     0.0184
   1472 H          -15.6184     2.5590    -1.5352 H       0      r0     0.0196
   1473 C          -15.7348     4.6654     0.3982 C       6      r6    -0.0225
   1474 H          -15.9234     4.7610     1.4817 H       0      r0     0.0179
   1475 C          -14.6022     5.3870    -0.3312 C       6      r6     0.0092
   1476 C          -14.3288     5.3142    -1.7834 C       6      r6    -0.0016
   1477 C          -13.0608     2.6910    -0.3022 C       0      r0    -0.0123
   1478 H          -12.6107     2.3154     0.8711 H       0      r0     0.0132
   1479 C          -12.9090     4.8238    -1.9584 C       0      r0    -0.0081
   1480 C          -12.5149     3.9053    -0.9742 C       0      r0    -0.0185
   1481 H          -11.4334     4.0221    -1.0890 H       0      r0     0.0178
   1482 C          -10.8870     5.4039     1.2262 C       0      r0    -0.0042
   1483 C           -9.6511     5.5878     0.3822 C       0      r0    -0.0042
   1484 C           -8.4862     5.1646     0.1650 C       0      r0    -0.0017
   1485 C           -7.7735     3.0018     0.6003 C       0      r0    -0.0047
   1486 C           -7.5611     3.4585     2.0584 C       0      r0     0.0009
   1487 C           -7.3606     4.2962    -0.0339 C       0      r0     0.0029
   1488 C           -6.4627     2.1584    -1.6328 C       0      r0     0.0055
   1489 C           -5.8661     4.6538    -0.3310 C       6      r6     0.0034
   1490 C           -5.7017     3.2256    -2.0056 C       0      r0    -0.0204
   1491 C           -4.9823     5.3172     0.6365 C       6      r6    -0.0032
   1492 C           -5.0986     3.5650    -0.7084 C       6      r6     0.0026
   1493 C           -3.9440     4.9117     1.5500 C       6      r6     0.0029
   1494 C           -4.0367     2.9196     0.2249 C       6      r6    -0.0012
   1495 C           -4.0951     3.4313     1.5414 C       6      r6    -0.0181
   1496 H           -3.4617     2.7866     2.1233 H       0      r0     0.0226
   1497 H           -2.1722     5.5972    -1.9650 H       0      r0     0.0138
   1498 C           -1.8205     5.8082     2.2237 C       0      r0    -0.0097
   1499 C           -0.4600     6.1619     1.8519 C       0      r0    -0.0211
   1500 C            0.7354     5.1821     2.3570 C       0      r0    -0.0276
   1501 C            2.1435     5.3707     2.0345 C       0      r0     0.0143
   1502 H            2.0907     2.3179    -1.4046 H       0      r0     0.0581
   1503 H            1.8784     6.0772     1.1814 H       0      r0     0.0078
   1504 H            3.8338     3.6046     1.7518 H       0      r0     0.0378
   1505 H            8.4585     4.3881     0.5305 H       0      r0     0.0157
   1506 H            8.6235     2.8361    -1.7408 H       0      r0     0.0143
   1507 H            9.3589     6.5810     1.7639 H       0      r0     0.0207
   1508 H            9.1639     1.9001    -0.4608 H       0      r0     0.0198
   1509 C            9.5048     5.9083    -0.2717 C       0      r0     0.0073
   1510 C            9.5906     5.6996     1.1780 C       0      r0    -0.0264
   1511 C            9.2476     4.1802     1.3168 C       0      r0    -0.0106
   1512 C            9.3366     5.2299    -1.4310 C       0      r0    -0.0242
   1513 H           10.1602     4.6745    -1.9708 H       0      r0     0.0165
   1514 C           10.6595     3.8790     0.7238 C       0      r0    -0.0211
   1515 C           11.3134     2.7411     1.3114 C       0      r0    -0.0013
   1516 H           11.3311     4.5193     0.0848 H       0      r0     0.0203
   1517 H           11.1413     3.3236    -1.6619 H       0      r0     0.0124
   1518 C           11.7313     2.3137    -1.9571 C       7      r7    -0.0295
   1519 H           12.9621     6.5238    -2.5122 H       0      r0     0.0196
   1520 C           13.2916     2.1923    -1.5158 C       6      r6    -0.0011
   1521 H           14.2507     5.8183    -0.0711 H       0      r0     0.0181
   1522 C           14.7458     2.8860     0.3751 C       6      r6    -0.0165
   1523 H           14.9216     2.9859     1.6076 H       0      r0     0.0201
   1524 C           15.9451     3.5399    -1.7908 C       6      r6    -0.0206
   1525 C           15.6204     3.8534    -0.3425 C       6      r6     0.0035
   1526 C           16.0044     9.4497     0.4941 C       6      r6    -0.0215
   1527 H          -15.9592     8.6419    -1.7216 H       0      r0     0.0231
   1528 H          -15.0842     6.9048     1.1378 H       0      r0     0.0188
   1529 C          -14.8145     9.9341     0.1771 C       6      r6    -0.0010
   1530 C          -14.7119     6.5212     0.2249 C       0      r0    -0.0233
   1531 C          -14.0892     7.7921    -0.3502 C       0      r0    -0.0102
   1532 C          -13.8454     9.0661    -0.7479 C       6      r6    -0.0073
   1533 C          -13.4982     9.5650    -2.1226 C       6      r6    -0.0151
   1534 H          -12.2046     7.8199    -1.9837 H       0      r0     0.0156
   1535 H          -11.7839     9.2930    -0.7897 H       0      r0     0.0205
   1536 C          -11.5309     8.4876     1.3846 C       0      r0    -0.0178
   1537 H          -11.9119     7.8953     0.6023 H       0      r0     0.0189
   1538 C          -10.9229     9.8531     1.4156 C       0      r0    -0.0178
   1539 C          -10.6191     8.9932    -0.9338 C       6      r6    -0.0322
   1540 H          -10.3395     7.8986    -0.4017 H       0      r0     0.0192
   1541 C          -10.0357     9.9781     0.2708 C       6      r6     0.0063
   1542 C           -8.4550     9.5085    -2.0357 C       6      r6    -0.0063
   1543 H           -8.1725     6.8024     2.1027 H       0      r0     0.0256
   1544 H           -6.7046     8.1120     0.2817 H       0      r0     0.0163
   1545 H           -6.5495     7.6306    -1.0761 H       0      r0     0.0205
   1546 C           -6.0557     7.7267     1.3093 C       0      r0    -0.0372
   1547 C           -5.5767     7.4684    -0.8127 C       0      r0    -0.0218
   1548 H           -6.2437     9.6870     0.3773 H       0      r0     0.0173
   1549 C           -5.4117     6.7708     0.6204 C       0      r0     0.0118
   1550 C           -4.2568     7.5889    -1.2827 C       0      r0    -0.0126
   1551 H           -3.9640     8.2379    -2.3059 H       0      r0     0.0118
   1552 H           -3.6876     8.6907     2.1630 H       0      r0     0.0270
   1553 C           -3.2023     8.3579    -0.6214 C       0      r0    -0.0017
   1554 C           -3.2732     9.5903     1.7977 C       6      r6    -0.1012
   1555 C           -2.0846     9.2266    -0.6872 C       0      r0    -0.0328
   1556 C           -2.3605     9.9921     0.7595 C       6      r6     0.0524
   1557 H           -1.7750     9.6185    -1.6394 H       0      r0     0.0163
   1558 H            0.1275     6.7932     1.2134 H       0      r0     0.0150
   1559 H            4.8924     7.6533    -0.6763 H       0      r0     0.0069
   1560 C            5.3256    10.1483    -1.2784 C       6      r6     0.0111
   1561 C            5.3810     8.8309    -0.5463 C       6      r6    -0.0180
   1562 C            6.3089     8.9693     0.4640 C       6      r6     0.0100
   1563 C            6.9417     9.6793     1.2083 C       6      r6    -0.0061
   1564 H            7.5218     9.4430     2.1270 H       0      r0     0.0191
   1565 O            9.1401    10.2218    -2.4097 O       3      r3    -0.4205
   1566 H           10.7152     9.2994     0.1301 H       0      r0     0.0801
   1567 C           10.9456     8.3567    -0.2164 C       6      r6     0.0102
   1568 C           11.4094     7.6792     1.0247 C       6      r6    -0.0159
   1569 C           11.6907     7.8448    -1.4308 C       6      r6     0.0463
   1570 C           12.7729     6.8101    -1.5017 C       6      r6    -0.0274
   1571 C           12.8067     7.0344     0.9947 C       6      r6     0.0040
   1572 C           12.7899     9.3289     1.5702 C       0      r0    -0.0376
   1573 H           12.4431    10.0768     0.6001 H       0      r0     0.0737
   1574 C           13.1299     6.4875     2.2325 C       0      r0    -0.0042
   1575 C           13.4448     6.6030    -0.2246 C       6      r6    -0.0138
   1576 C           14.0940     9.3770     1.7262 C       0      r0    -0.0016
   1577 H          -15.8927     8.4509     0.3881 H       0      r0     0.0204
   1578 C          -15.5809    12.4182     0.4909 C       6      r6    -0.0167
   1579 H          -15.7736    13.3077    -0.2478 H       0      r0     0.0226
   1580 C          -14.5840    12.7540     1.6575 C       0      r0    -0.0009
   1581 C          -14.7015    11.2586    -0.2246 C       6      r6     0.0004
   1582 C          -14.2179    14.1215    -1.5207 C       7      r7    -0.0024
   1583 C          -13.8529    11.7369    -1.2189 C       6      r6    -0.0054
   1584 C          -13.7000    13.8436     1.5056 C       0      r0    -0.0166
   1585 C          -13.4140    12.9867    -1.4767 C       7      r7    -0.0057
   1586 H          -12.5254    11.8493     2.0254 H       0      r0     0.0210
   1587 C          -12.2462    13.6416    -0.7293 C       0      r0    -0.0179
   1588 H          -11.8520    13.1904     0.1694 H       0      r0     0.0217
   1589 C          -10.1650    14.1223     1.7620 C       5      r5    -0.0044
   1590 C           -8.9536    10.6021     0.2669 C       6      r6    -0.0288
   1591 H           -8.8303    11.3404     0.9649 H       0      r0     0.0212
   1592 C           -8.1191    10.5764    -1.0429 C       6      r6    -0.0016
   1593 C           -7.4355    13.7749     2.0255 C       0      r0    -0.0153
   1594 H           -6.9783    10.9970     1.2988 H       0      r0     0.0157
   1595 C           -6.7504    10.9060    -1.4110 C       5      r5    -0.0007
   1596 C           -7.3000    13.9495     0.5566 C       6      r6     0.0021
   1597 C           -6.4681    12.9556    -0.0958 C       6      r6     0.0197
   1598 C           -6.1773    11.5118     0.7013 C       0      r0    -0.0265
   1599 C           -5.9831    13.8818    -2.0361 C       6      r6     0.0035
   1600 C           -5.7484    10.4078    -0.4415 C       0      r0    -0.0311
   1601 C           -5.5623    12.9015    -1.3612 C       6      r6    -0.0060
   1602 H           -5.2918    11.1340     1.0837 H       0      r0     0.0408
   1603 H           -4.8827    12.2065    -1.4487 H       0      r0     0.0324
   1604 H           -4.8950    10.4356    -1.1839 H       0      r0     0.0245
   1605 H           -1.9270    12.5164    -0.8476 H       0      r0     0.0582
   1606 C           -1.6450    12.3840    -1.9557 C       0      r0    -0.0149
   1607 C           -1.4213    11.8214     1.6658 C       6      r6     0.2536
   1608 C           -1.1989    10.9582     0.6849 C       6      r6    -0.1027
   1609 C           -0.6114    12.9849     1.4466 C       0      r0    -0.0330
   1610 H           -0.4913    10.9745    -0.2026 H       0      r0     0.0287
   1611 C           -0.2561    12.6702    -2.0009 C       0      r0    -0.0030
   1612 C            0.4324    12.9102     0.5827 C       0      r0     0.0161
   1613 C            0.7705    12.5308    -0.6539 C       0      r0    -0.0118
   1614 H            1.0419    10.9068     0.9639 H       0      r0     0.0125
   1615 C            1.4729    11.1866     2.0138 C       6      r6    -0.0180
   1616 C            2.0806    13.0157    -0.5590 C       0      r0    -0.0201
   1617 H            2.4943    13.2009    -1.7182 H       0      r0     0.0256
   1618 C            2.5568    12.0570     1.8079 C       6      r6     0.0266
   1619 C            2.9756    12.9354     0.6435 C       0      r0     0.0049
   1620 C            3.8488    14.1329     0.4528 C       0      r0     0.0174
   1621 H            4.9533    12.7476    -1.0587 H       0      r0     0.0250
   1622 C            5.2474    14.1606     0.9057 C       0      r0     0.0215
   1623 C            5.3621    11.0163    -0.0137 C       6      r6     0.0008
   1624 C            5.6957    12.5124    -0.3497 C       5      r5    -0.0378
   1625 C            5.9437    12.9745     0.8942 C       5      r5    -0.0023
   1626 C            6.1249    12.1183     1.8817 C       5      r5    -0.0012
   1627 C            6.2998    10.9949     1.0547 C       6      r6     0.0128
   1628 H            6.5886    12.6859    -0.9797 H       0      r0     0.0354
   1629 H            8.6011   -14.2593    -1.2649 H       0      r0     0.0176
   1630 H           10.8066    13.2505    -1.3320 H       0      r0     0.0557
   1631 H           10.8452    13.1962     0.3138 H       0      r0     0.0444
   1632 C           11.2495    13.8322    -0.5243 C       0      r0    -0.0550
   1633 O           11.7631    10.7924    -1.4318 O       0      r0    -0.4742
   1634 C           12.2755    14.1107     2.3921 C       0      r0    -0.0069
   1635 C           12.8412    14.0374    -0.6378 C       0      r0     0.0156
   1636 C           13.1089   -14.1597    -1.9473 C       0      r0    -0.0097
   1637 H           13.5796    11.7498    -0.5960 H       0      r0     0.0647
   1638 C           14.0078    13.7926     0.1896 C       0      r0    -0.0010
   1639 C           14.4144    12.4491    -0.3064 C       0      r0    -0.0316
   1640 C           15.1497    11.7336     0.7567 C       6      r6     0.0027
   1641 C           15.0710    10.2109     1.2350 C       6      r6    -0.0011
   1642 C          -15.4661   -12.4351     4.0316 C       7      r7     0.0167
   1643 C          -15.4817   -14.2813     5.7649 C       7      r7     0.0045
   1644 C          -14.1204   -12.8268     3.7029 C       7      r7    -0.0035
   1645 C          -13.5917   -14.0299     3.4804 C       6      r6     0.0055
   1646 C          -13.0489   -11.5102     4.0176 C       0      r0    -0.0031
   1647 C          -12.1607   -10.8546     4.2660 C       0      r0    -0.0029
   1648 C          -10.6737   -10.9241     4.7745 C       0      r0    -0.0280
   1649 H           -9.8362   -11.8360     4.5190 H       0      r0     0.0179
   1650 C           -9.9140   -10.3058     5.6674 C       0      r0     0.0455
   1651 C           -8.7932   -14.3191     4.5111 C       0      r0    -0.0129
   1652 C           -8.4936   -10.8807     6.3271 C       0      r0    -0.0191
   1653 C           -8.4226   -13.2696     5.2734 C       0      r0    -0.0039
   1654 C           -7.8033   -12.2587     4.2773 C       0      r0    -0.0267
   1655 C           -7.5894   -11.1932     5.1143 C       0      r0     0.0112
   1656 C           -7.2704   -14.0104     6.0604 C       6      r6     0.0051
   1657 H           -7.3380   -12.6350     3.3424 H       0      r0     0.0156
   1658 C           -6.3900   -10.3816     4.6956 C       0      r0    -0.0081
   1659 H           -5.7577   -12.1405     2.2540 H       0      r0     0.0109
   1660 H           -6.7392   -10.9313     3.5997 H       0      r0     0.0104
   1661 C           -5.7555   -13.9029     6.2543 C       6      r6     0.0178
   1662 H           -5.7573   -13.7729     4.2296 H       0      r0     0.0224
   1663 C           -5.0480   -13.5694     5.1324 C       6      r6    -0.0039
   1664 C           -4.0926   -13.0593     2.9207 C       0      r0     0.0125
   1665 C           -3.5752   -13.7790     5.2116 C       6      r6    -0.0172
   1666 C           -3.0577   -13.0964     3.8605 C       0      r0     0.0171
   1667 C           -3.1165   -13.0822     6.6996 C       6      r6     0.0079
   1668 C           -1.9297   -12.4781     3.5217 C       0      r0    -0.0169
   1669 H           -1.2641   -11.8032     6.1818 H       0      r0     0.0114
   1670 H           -1.1908   -14.0127     5.2305 H       0      r0     0.0262
   1671 H           -1.0193   -10.9167     2.3131 H       0      r0     0.0130
   1672 C           -0.6238   -12.4171     4.0665 C       0      r0    -0.0147
   1673 C           -0.2172   -13.3662     5.0512 C       0      r0    -0.0127
   1674 H            0.3090   -11.8621     3.7123 H       0      r0     0.0246
   1675 C            1.2236   -13.3395     5.6576 C       0      r0     0.0079
   1676 C            2.3686   -10.8214     3.6262 C       0      r0     0.0121
   1677 C            2.1189   -12.3519     5.2797 C       0      r0     0.0121
   1678 C            3.0506   -11.3681     4.5395 C       0      r0     0.0125
   1679 H            3.4855   -10.7595     5.4499 H       0      r0     0.0159
   1680 O            3.7745   -13.8583     3.1399 O       5      r5    -0.4843
   1681 C            4.9300   -13.4257     3.9594 C       5      r5     0.2432
   1682 C            5.3101   -14.3359     4.9671 C       5      r5    -0.0440
   1683 H            5.7957   -11.8633     2.8051 H       0      r0     0.0500
   1684 C            5.8354   -12.3609     3.8085 C       5      r5    -0.0711
   1685 C            6.5390   -13.8307     5.6278 C       5      r5    -0.0012
   1686 C            6.9284   -12.6772     4.5391 C       5      r5     0.0065
   1687 C            8.0487   -12.8367     3.7402 C       0      r0     0.0053
   1688 C            8.9521   -12.9872     2.9175 C       0      r0    -0.0268
   1689 C            9.4464   -10.4946     6.2975 C       0      r0    -0.0407
   1690 H            9.1251   -14.2566     7.3531 H       0      r0     0.0190
   1691 H            9.9931   -13.4413     3.1868 H       0      r0     0.0155
   1692 C           10.3451   -10.4173     5.4173 C       0      r0     0.2315
   1693 C           11.6503   -11.1494     5.4775 C       0      r0    -0.0346
   1694 C           12.7100   -12.9929     5.4238 C       0      r0    -0.0068
   1695 C           12.8206   -11.7080     6.0584 C       0      r0     0.0075
   1696 C           12.7258   -14.0935     5.0545 C       0      r0    -0.0083
   1697 C           12.8750   -11.9148     2.3984 C       0      r0     0.0016
   1698 H           13.5149   -11.5293     6.7921 H       0      r0     0.0590
   1699 H           14.7287   -12.9702     5.0973 H       0      r0     0.0293
   1700 C           15.5630   -14.0921     2.3026 C       5      r5    -0.0235
   1701 C           15.9479   -12.6483     2.7035 C       5      r5    -0.0014
   1702 C           15.8315   -13.0440     5.1325 C       7      r7     0.0181
   1703 C          -15.5052    -6.8673     4.4178 C       7      r7    -0.0060
   1704 C          -15.3303    -7.8711     3.3816 C       0      r0     0.0051
   1705 C          -14.5332    -9.0578     3.5868 C       0      r0    -0.0152
   1706 C          -14.8674   -10.1549     2.5466 C       0      r0     0.0033
   1707 H          -13.7158    -9.5133     4.2364 H       0      r0     0.0305
   1708 H          -11.8081   -10.1164     2.5592 H       0      r0     0.0172
   1709 H          -10.1238    -8.4359     4.0529 H       0      r0     0.0318
   1710 C          -10.4465    -8.1909     3.0678 C       0      r0    -0.0197
   1711 C          -10.0751    -6.9088     2.9298 C       0      r0    -0.0130
   1712 H           -9.8565    -6.0949     4.9847 H       0      r0     0.0431
   1713 H           -7.7094   -10.1752     6.6821 H       0      r0     0.1143
   1714 H           -6.4393    -8.7651     5.8384 H       0      r0     0.0382
   1715 C           -5.6780    -9.4275     5.4117 C       0      r0     0.0205
   1716 H           -5.2365    -9.9579     2.6416 H       0      r0     0.0146
   1717 C           -4.6073    -8.6825     4.4755 C       0      r0    -0.0037
   1718 C           -4.5881    -9.1016     3.0224 C       0      r0    -0.0264
   1719 C           -4.2959    -8.1350     2.4017 C       0      r0    -0.0021
   1720 C           -3.3922    -8.1599     5.1308 C       0      r0    -0.0221
   1721 C           -3.5586    -8.2641     6.5873 C       0      r0     0.0090
   1722 H           -2.9594    -6.2635     2.4413 H       0      r0     0.0195
   1723 H           -2.2920    -8.1162     4.7582 H       0      r0     0.0117
   1724 H            0.6792    -5.6589     3.8031 H       0      r0     0.0218
   1725 C            1.7577   -10.1279     2.5726 C       0      r0     0.0004
   1726 C            1.9310    -8.5862     2.5889 C       0      r0    -0.0078
   1727 C            2.4089    -7.3932     3.2408 C       6      r6     0.1519
   1728 H            2.0971    -7.6692     4.6700 H       0      r0     0.0133
   1729 O            4.0801    -7.3165     2.8804 O       6      r6    -0.4338
   1730 C            4.7443    -6.3203     4.1677 C       6      r6     0.1740
   1731 H            5.9061    -8.6432     7.0968 H       0      r0     0.0410
   1732 C            6.0538    -6.4289     4.7239 C       0      r0    -0.0695
   1733 C            7.1108    -6.9504     3.9108 C       3      r3     0.1532
   1734 H            7.9036    -7.4628     6.8030 H       0      r0     0.0257
   1735 C            8.2350    -7.5453     4.2794 C       3      r3     0.1375
   1736 C            8.0511    -9.5343     6.6274 C       0      r0     0.0325
   1737 C            8.6074    -8.2580     6.5903 C       0      r0    -0.0312
   1738 O            8.4880    -6.5786     3.1892 O       3      r3    -0.4582
   1739 H            9.0074    -8.2389     4.5074 H       0      r0     0.1333
   1740 O            9.9838    -9.6146     4.0868 O       0      r0    -0.6554
   1741 H           10.5500   -10.0698     3.5331 H       0      r0     0.3023
   1742 C           12.8012    -7.0820     2.3365 C       0      r0    -0.0084
   1743 H           13.3926    -9.3086     2.9592 H       0      r0     0.0251
   1744 C           13.1880    -8.2861     3.2804 C       0      r0     0.0013
   1745 C           13.7130    -7.7365     4.3425 C       0      r0     0.0234
   1746 H           13.5951    -7.5881     6.3277 H       0      r0     0.0888
   1747 C           14.2486    -7.3056     5.5544 C       0      r0    -0.0185
   1748 H           14.9926    -8.8195     2.1638 H       0      r0     0.0233
   1749 C           15.7662    -7.3812     5.3858 C       7      r7     0.0090
   1750 H          -15.2907    -3.4753     3.9166 H       0      r0     0.0199
   1751 C          -15.0392    -5.4691     4.5717 C       7      r7    -0.0010
   1752 C          -14.9985    -4.4820     3.5124 C       0      r0    -0.0220
   1753 C          -14.9493    -3.5495     6.2694 C       7      r7    -0.0073
   1754 C          -14.8326    -4.9099     5.9114 C       7      r7    -0.0091
   1755 C          -13.7682    -2.7527     6.5396 C       7      r7    -0.0084
   1756 H          -12.5493    -5.3174     2.5013 H       0      r0     0.0167
   1757 C          -12.4881    -3.3721     6.7967 C       5      r5     0.0040
   1758 H          -11.9633    -4.2300     5.0814 H       0      r0     0.0230
   1759 C          -12.1258    -4.2402     2.8422 C       7      r7    -0.0182
   1760 C          -11.6324    -3.8738     4.1434 C       7      r7    -0.0009
   1761 C          -11.1554    -3.0204     6.5073 C       5      r5    -0.0740
   1762 C          -10.7768    -2.7453     4.2906 C       7      r7    -0.0767
   1763 C          -10.5161    -2.1876     5.5200 C       0      r0     0.3095
   1764 C           -9.7362    -5.8838     4.0293 C       0      r0    -0.0260
   1765 C          -10.0513    -2.5449     3.1904 C       7      r7     0.0569
   1766 C           -9.3393    -4.6729     3.5756 C       0      r0     0.0144
   1767 C           -9.2712    -3.5780     2.7585 C       0      r0    -0.0188
   1768 C           -6.7224    -4.7255     3.3332 C       6      r6     0.0039
   1769 H           -6.6405    -5.6187     5.9382 H       0      r0     0.0259
   1770 C           -6.1161    -4.8578     5.6113 C       0      r0    -0.0130
   1771 C           -5.6091    -4.7435     4.1916 C       6      r6     0.0023
   1772 C           -5.2476    -4.5213     6.8380 C       0      r0     0.0044
   1773 C           -4.6264    -3.6577     3.6320 C       6      r6    -0.0165
   1774 C           -4.2105    -3.6290     2.2611 C       6      r6     0.0416
   1775 H           -3.4879    -3.5043     4.0144 H       0      r0     0.0202
   1776 C           -4.0936    -5.5021     6.3908 C       0      r0    -0.0061
   1777 C           -2.7501    -5.3979     6.0254 C       0      r0    -0.0036
   1778 C           -1.6722    -3.2436     2.4176 C       5      r5    -0.0265
   1779 H           -1.2486    -3.8399     3.1770 H       0      r0     0.0203
   1780 C           -1.6876    -5.4927     5.6038 C       0      r0    -0.0124
   1781 C           -0.2595    -4.9499     6.1312 C       0      r0    -0.0054
   1782 C            0.3734    -3.9403     5.4353 C       0      r0    -0.0020
   1783 H            0.9767    -2.1160     4.3376 H       0      r0     0.0193
   1784 C            1.2328    -2.9201     4.8879 C       0      r0    -0.0273
   1785 C            1.6896    -6.1839     4.0254 C       6      r6    -0.0518
   1786 C            2.6066    -5.0249     4.3094 C       6      r6     0.0213
   1787 C            2.7512    -3.4625     4.5963 C       0      r0    -0.0182
   1788 H            3.1655    -3.4471     5.6139 H       0      r0     0.0193
   1789 C            3.8427    -2.9388     3.8397 C       0      r0    -0.0146
   1790 C            3.8710    -3.0234     2.4015 C       0      r0    -0.0182
   1791 C            3.7513    -5.5165     4.2719 C       6      r6    -0.0184
   1792 H            4.3305    -1.9657     4.3437 H       0      r0     0.0137
   1793 H            5.7584    -2.6469     2.7107 H       0      r0     0.0178
   1794 C            6.0915    -4.3583     6.3007 C       0      r0    -0.0042
   1795 C            6.6057    -5.1086     5.2539 C       0      r0     0.0205
   1796 H            7.1496    -2.4992     6.9467 H       0      r0     0.0151
   1797 C            7.2964    -3.8731     4.6361 C       0      r0     0.0107
   1798 C            7.9681    -3.1068     4.3663 C       0      r0    -0.0087
   1799 H            8.8307    -6.1708     6.9006 H       0      r0     0.0293
   1800 H           11.7740    -4.1628     3.1596 H       0      r0     0.0219
   1801 C           12.7698    -2.5251     4.6021 C       0      r0    -0.0044
   1802 C           12.7812    -4.6243     3.2632 C       0      r0    -0.0159
   1803 C           13.1791    -3.8637     4.5093 C       0      r0    -0.0130
   1804 C           12.9817    -5.8864     2.9476 C       0      r0     0.0104
   1805 H           13.4591    -3.9642     5.4429 H       0      r0     0.0280
   1806 H           14.5629    -4.6203     6.9339 H       0      r0     0.0355
   1807 C          -15.7177     1.4800     3.2299 C       0      r0    -0.0193
   1808 H          -15.3855     0.1049     5.7270 H       0      r0     0.0201
   1809 H          -14.9313     1.4796     2.4891 H       0      r0     0.0177
   1810 H          -13.1799     0.4416     6.4669 H       0      r0     0.0219
   1811 C          -12.4789     2.2282     3.9686 C       0      r0    -0.0050
   1812 H          -11.6458    -1.1124     3.3770 H       0      r0     0.0297
   1813 C          -11.5874     1.3910     3.3586 C       0      r0    -0.0053
   1814 C          -10.5905     0.6475     2.9289 C       0      r0    -0.0058
   1815 C          -10.0595    -1.5726     2.3129 C       7      r7    -0.0226
   1816 C           -9.5669     0.1612     6.4062 C       6      r6     0.2641
   1817 C           -9.4859    -0.0779     2.5638 C       0      r0     0.0186
   1818 O           -9.4812    -1.2588     5.7678 O       0      r0    -0.5497
   1819 C           -8.7820     1.0754     5.7375 C       6      r6    -0.0690
   1820 C           -8.0410     0.3781     4.9093 C       0      r0     0.0942
   1821 H           -6.4654    -0.4718     3.3289 H       0      r0     0.0331
   1822 C           -6.9048     0.2568     4.0745 C       0      r0    -0.0203
   1823 C           -5.8817     0.6571     4.7967 C       0      r0    -0.0322
   1824 H           -6.1847     0.9129     5.8432 H       0      r0     0.0214
   1825 H           -4.8725     0.2184     4.4460 H       0      r0     0.0231
   1826 C           -2.2242    -0.4881     6.2385 C       0      r0    -0.0021
   1827 C           -2.0095     1.6580     4.9282 C       6      r6    -0.0065
   1828 C           -1.7780     0.0054     5.1303 C       6      r6    -0.0079
   1829 C           -0.4090    -0.5387     4.9193 C       6      r6     0.0052
   1830 C            0.0017    -1.0373     6.0777 C       0      r0    -0.0072
   1831 C            0.4231     1.6810     4.1682 C       6      r6     0.1939
   1832 C            0.4967     0.3512     4.0690 C       6      r6    -0.0821
   1833 H            1.3526    -0.1053     3.7542 H       0      r0     0.0381
   1834 H            2.1727    -0.4093     5.4647 H       0      r0     0.0212
   1835 C            3.1793    -0.2100     5.1883 C       0      r0    -0.0226
   1836 C            3.2433     0.0277     3.8242 C       0      r0     0.0076
   1837 C            3.4358     0.2140     2.4568 C       0      r0     0.0023
   1838 C            4.1342    -0.1210     6.4431 C       0      r0    -0.0017
   1839 H            4.3080     0.0179     2.0219 H       0      r0     0.0252
   1840 C            5.4506     0.2396     6.0069 C       0      r0    -0.0174
   1841 H            5.5222     0.3254     4.7312 H       0      r0     0.0206
   1842 H            7.1254    -1.0364     3.3027 H       0      r0     0.0160
   1843 C            6.5830     1.3860     2.9684 C       0      r0     0.0003
   1844 C            7.2725     0.1429     3.0913 C       0      r0    -0.0207
   1845 C            8.7962    -1.8137     4.1402 C       0      r0    -0.0035
   1846 C            8.8338    -1.5361     2.7136 C       0      r0    -0.0275
   1847 H            8.9836     0.0950     6.5824 H       0      r0     0.0215
   1848 C            9.2421    -0.8021     4.9080 C       0      r0    -0.0054
   1849 C            9.5068     0.2881     5.5927 C       0      r0    -0.0151
   1850 C           10.5738     1.5059     5.2896 C       0      r0    -0.0136
   1851 H           11.1006     1.5475     4.2177 H       0      r0     0.0170
   1852 C           10.8513     2.1031     6.3772 C       0      r0    -0.0034
   1853 H           12.2539     2.3540     3.0520 H       0      r0     0.0182
   1854 C           12.6411    -1.7615     5.6434 C       0      r0    -0.0049
   1855 C           15.4417     0.9811     2.5996 C       0      r0    -0.0036
   1856 C           15.9915     4.7612     6.5536 C       7      r7    -0.0266
   1857 C          -15.6791     2.5606     4.2096 C       0      r0    -0.0159
   1858 C          -14.9180     3.9615     6.2427 C       5      r5    -0.0010
   1859 C          -14.6862     3.2180     5.0155 C       5      r5    -0.0034
   1860 C          -13.4965     4.3071     6.6638 C       5      r5     0.0018
   1861 C          -13.2932     2.8448     4.9282 C       5      r5    -0.0004
   1862 C          -12.3882     3.4791     5.9521 C       5      r5    -0.0051
   1863 C          -10.9857     3.6878     6.1650 C       0      r0     0.0017
   1864 H           -9.8662     5.5017     4.8795 H       0      r0     0.0222
   1865 C          -10.3085     5.3714     2.6129 C       0      r0    -0.0168
   1866 H          -11.2792     5.2107     3.1367 H       0      r0     0.0218
   1867 C          -10.2423     5.0252     5.6853 C       0      r0    -0.0203
   1868 C          -10.2828     6.0614     6.7378 C       0      r0    -0.0160
   1869 C           -9.9393     2.8129     6.3171 C       6      r6    -0.0034
   1870 H           -8.1941     6.1434     5.0078 H       0      r0     0.0212
   1871 C           -8.5358     2.6444     5.6315 C       6      r6    -0.0044
   1872 H           -8.5028     3.0814     4.4914 H       0      r0     0.0200
   1873 C           -7.3951     2.9339     6.6437 C       5      r5     0.0041
   1874 C           -7.3497     4.1168     3.1472 C       0      r0    -0.0052
   1875 C           -6.4530     4.0993     6.9028 C       5      r5    -0.0068
   1876 C           -6.6725     4.2543     4.2881 C       0      r0    -0.0036
   1877 C           -6.1044     4.5397     5.5124 C       7      r7    -0.0037
   1878 H           -4.9660     2.5122     6.0941 H       0      r0     0.0182
   1879 C           -5.0367     5.6153     5.8209 C       7      r7    -0.0036
   1880 C           -4.4702     6.0797     4.5388 C       0      r0    -0.0019
   1881 C           -3.9884     3.0000     6.0550 C       0      r0    -0.0236
   1882 C           -2.9335     2.3451     5.5282 C       0      r0    -0.0005
   1883 C           -3.1858     6.0053     2.2057 C       0      r0     0.0003
   1884 H           -1.7125     4.4750     3.4136 H       0      r0     0.0195
   1885 C           -0.8848     2.2982     4.2778 C       6      r6    -0.0132
   1886 C           -0.9795     3.6402     3.6298 C       5      r5    -0.0440
   1887 H            0.7544     3.6910     6.2375 H       0      r0     0.0399
   1888 C            0.2747     4.0772     3.1990 C       5      r5     0.1960
   1889 O            1.3069     2.8562     3.4157 O       5      r5    -0.4565
   1890 C            3.3118     5.4339     3.0196 C       0      r0     0.0099
   1891 C            3.9105     4.2005     2.7451 C       0      r0     0.0159
   1892 C            4.9595     3.3826     3.5067 C       0      r0     0.0064
   1893 C            5.0058     3.2541     4.8368 C       0      r0     0.0129
   1894 C            5.1198     6.2350     6.0038 C       0      r0    -0.0031
   1895 C            5.2465     3.6914     6.1911 C       5      r5     0.0050
   1896 C            6.0745     5.0251     6.4954 C       5      r5    -0.0160
   1897 C            6.3933     2.8711     3.0830 C       0      r0    -0.0031
   1898 H            6.9819     5.5010     6.2393 H       0      r0     0.0200
   1899 H            7.0838     4.5109     3.9752 H       0      r0     0.0182
   1900 C            7.6483     4.0180     3.1707 C       0      r0    -0.0177
   1901 C            9.0393     4.0721     2.8351 C       0      r0    -0.0200
   1902 H            9.9793     3.7677     3.1058 H       0      r0     0.0199
   1903 C           11.3497     5.4135     4.5990 C       5      r5    -0.0181
   1904 C           11.3626     5.9410     5.9208 C       5      r5    -0.0012
   1905 H           11.1374     4.2939     4.3916 H       0      r0     0.0158
   1906 C           13.6530     5.7121     3.2242 C       0      r0    -0.0403
   1907 H           14.6944     5.7101     3.0498 H       0      r0     0.0191
   1908 H           15.1835     4.7941     5.8582 H       0      r0     0.0183
   1909 H           15.4743     2.7620     4.7935 H       0      r0     0.0172
   1910 H          -14.2489     9.8467     4.9330 H       0      r0     0.0167
   1911 C          -13.6127     9.3735     4.2741 C       6      r6    -0.0240
   1912 C          -13.0072     9.5581     3.0628 C       6      r6     0.0072
   1913 C          -13.2043     8.3793     6.5981 C       7      r7    -0.0120
   1914 C          -12.6986     8.5692     5.2004 C       6      r6     0.0023
   1915 C          -12.3119     8.3120     2.6599 C       6      r6     0.0008
   1916 C          -11.3281     7.6301     3.6955 C       6      r6    -0.0046
   1917 C          -11.4500     7.9295     5.1809 C       6      r6    -0.0014
   1918 C          -10.7560     7.2675     6.2862 C       7      r7    -0.0002
   1919 C          -10.3931     6.9764     2.8693 C       0      r0     0.0028
   1920 C          -10.1519     9.6667     6.5262 C       0      r0    -0.0367
   1921 H           -9.6057     9.5518     5.4949 H       0      r0     0.0187
   1922 C           -8.8450     7.2240     2.8593 C       0      r0    -0.0319
   1923 H           -8.9048     8.3018     3.2622 H       0      r0     0.0202
   1924 C           -8.2054     6.9256     4.2085 C       0      r0    -0.0177
   1925 C           -7.5724     7.9559     4.6206 C       0      r0    -0.0046
   1926 C           -7.0098     8.8547     5.1738 C       0      r0    -0.0070
   1927 H           -6.2715     8.2739     2.2479 H       0      r0     0.0196
   1928 C           -5.6641     9.1413     5.3354 C       0      r0    -0.0033
   1929 C           -4.6633     9.0693     6.5347 C       0      r0    -0.0009
   1930 C           -3.8816     6.4756     3.4919 C       0      r0    -0.0159
   1931 H           -3.6223    10.2898     3.8036 H       0      r0     0.0096
   1932 H           -3.3192     7.4436     3.8784 H       0      r0     0.0128
   1933 C           -1.9115    10.2089     6.1331 C       0      r0    -0.0062
   1934 H            0.3922    10.4292     3.5011 H       0      r0     0.0278
   1935 H           -0.1258     8.4680     6.7523 H       0      r0     0.0185
   1936 C            0.9884     6.9878     6.1446 C       6      r6    -0.0195
   1937 H            0.3328     6.7365     5.1569 H       0      r0     0.0143
   1938 C            1.6345    10.2697     3.3303 C       6      r6    -0.0295
   1939 H            2.0583     9.1917     3.2089 H       0      r0     0.0108
   1940 H            2.9726     7.6150     3.7283 H       0      r0     0.0109
   1941 H            3.6251     9.0351     3.5485 H       0      r0     0.0121
   1942 C            3.4951     6.5650     3.9818 C       0      r0    -0.0195
   1943 C            3.8789     9.5941     4.5306 C       0      r0    -0.0284
   1944 H            3.3931     9.0397     5.5806 H       0      r0     0.0176
   1945 C            4.2412     6.4128     4.9035 C       0      r0     0.0065
   1946 C            5.4969     9.6696     4.1993 C       0      r0    -0.0150
   1947 H            5.0345     8.6753     3.4111 H       0      r0     0.0109
   1948 C            5.7963     7.3210     6.7903 C       0      r0    -0.0012
   1949 C            6.1957     9.3574     5.5672 C       0      r0     0.0023
   1950 C            6.8309     8.0406     5.9580 C       0      r0    -0.0234
   1951 H            7.8625     7.7828     5.7442 H       0      r0     0.0169
   1952 H           10.3183     9.3362     6.4130 H       0      r0     0.0219
   1953 H           10.8992     6.1424     2.7014 H       0      r0     0.0214
   1954 C           10.4424     8.4846     6.8509 C       0      r0    -0.0796
   1955 C           10.8293     6.4120     3.7284 C       5      r5    -0.0208
   1956 C           11.0391     7.4075     5.9205 C       5      r5     0.0298
   1957 C           11.3497     7.5978     4.5614 C       5      r5    -0.0227
   1958 H           11.2998     8.6060     4.0291 H       0      r0     0.0158
   1959 H           11.9429     9.0285     2.3281 H       0      r0     0.0203
   1960 H           13.4251     5.7916     4.3505 H       0      r0     0.0224
   1961 H           13.6162     9.5149     3.7706 H       0      r0     0.0167
   1962 C           13.8794     9.9201     4.8256 C       5      r5    -0.0139
   1963 C           15.1327     9.3002     5.1625 C       5      r5    -0.0163
   1964 C           15.1574     9.2984     6.5872 C       5      r5    -0.0204
   1965 H           15.4823     8.4383     4.5810 H       0      r0     0.0171
   1966 H          -15.3583    11.5560     6.2577 H       0      r0     0.0208
   1967 C          -15.5611    11.9550     3.9925 C       0      r0    -0.0164
   1968 C          -14.8928    12.0623     5.3631 C       0      r0    -0.0329
   1969 C          -14.4090    13.5117     5.5669 C       7      r7     0.0086
   1970 C          -14.5954    11.8832     2.9545 C       0      r0     0.0001
   1971 H          -13.8551    11.5819     4.9663 H       0      r0     0.0230
   1972 C          -13.3283    11.0122     2.5555 C       0      r0    -0.0157
   1973 C          -13.2676    13.8347     4.6790 C       6      r6    -0.0017
   1974 C          -12.0003    13.3890     4.9569 C       6      r6    -0.0009
   1975 C          -11.7898    12.2407     6.0730 C       0      r0    -0.0231
   1976 C          -11.4827    14.0924     2.5905 C       6      r6    -0.0007
   1977 H          -10.9941    11.5080     5.7804 H       0      r0     0.0189
   1978 C          -11.1148    13.5846     3.9500 C       6      r6    -0.0051
   1979 H          -10.7346    10.4020     2.4646 H       0      r0     0.0184
   1980 H           -9.9482    10.6517     7.0579 H       0      r0     0.0185
   1981 C           -9.5031    13.5198     3.6347 C       5      r5    -0.0097
   1982 C           -8.8910    13.6784     2.2333 C       5      r5    -0.0067
   1983 H           -8.5262    13.0211     5.9858 H       0      r0     0.0176
   1984 C           -7.5442    13.3860     6.4209 C       6      r6    -0.0216
   1985 H           -7.3567    13.3525     3.0631 H       0      r0     0.0220
   1986 H           -3.0215    14.0424     5.3206 H       0      r0     0.0394
   1987 C           -3.1321    10.4274     2.7069 C       6      r6     0.2140
   1988 H           -2.4556     9.7594     5.0986 H       0      r0     0.0203
   1989 O           -2.5400    11.8780     2.7214 O       6      r6    -0.4757
   1990 H           -0.4736    14.0074     2.1067 H       0      r0     0.0583
   1991 H           -0.6091    12.5545     6.6798 H       0      r0     0.0167
   1992 C           -0.4091    10.4338     6.2013 C       0      r0    -0.0074
   1993 C           -0.1813    11.9498     5.7967 C       0      r0    -0.0013
   1994 C            1.2006    12.0595     5.3688 C       0      r0     0.0045
   1995 C            1.7395    14.2729     6.4434 C       0      r0    -0.0080
   1996 C            1.9813    11.1375     4.5382 C       6      r6     0.0064
   1997 C            3.4636    11.1628     4.3402 C       6      r6     0.0069
   1998 C            3.5130    12.2043     2.9858 C       6      r6    -0.0562
   1999 C            3.6104    13.0272     6.5998 C       0      r0     0.0112
   2000 C            4.0386    13.2303     3.3763 C       5      r5     0.1914
   2001 C            3.9832    12.2358     5.4320 C       5      r5    -0.0058
   2002 C            4.6069    13.2782     4.7197 C       5      r5    -0.0032
   2003 H            5.0532    10.9551     6.6486 H       0      r0     0.0198
   2004 C            5.9104    10.9291     3.7267 C       0      r0    -0.0007
   2005 C            6.0769    10.3652     6.6875 C       0      r0    -0.0146
   2006 C            6.4200    12.1554     3.3623 C       0      r0    -0.0218
   2007 H            7.1179    12.9378     4.0083 H       0      r0     0.0197
   2008 C            8.7158    12.1897     6.3995 C       0      r0     0.0028
   2009 H           10.0404    11.1318     5.1944 H       0      r0     0.0190
   2010 C            9.5812    12.0673     5.5105 C       0      r0    -0.0481
   2011 H            9.6899    12.9945     5.0311 H       0      r0     0.0193
   2012 H           12.1394    10.5955     6.2543 H       0      r0     0.0173
   2013 C           12.8711    13.0927     3.3447 C       0      r0    -0.0221
   2014 C           13.1741    13.3410     4.6019 C       0      r0    -0.0210
   2015 C           13.0696    10.2228     5.9327 C       5      r5    -0.0160
   2016 H           12.9929    12.1084     2.9478 H       0      r0     0.0189
   2017 H           13.8774    12.6051     5.3909 H       0      r0     0.0143
   2018 H           15.5098    12.5934     4.1581 H       0      r0     0.0134
   2019 H           15.7741    13.7288     2.7508 H       0      r0     0.0219
   2020 C          -16.0058   -11.3698     9.6358 C       5      r5    -0.0457
   2021 C          -15.4548   -12.4358     7.5903 C       5      r5     0.2152
   2022 C          -14.9975   -13.6753     7.0488 C       5      r5    -0.0478
   2023 C          -15.2592   -12.4123     9.0202 C       5      r5    -0.0287
   2024 C          -14.0739    14.3506     8.1274 C       5      r5     0.0058
   2025 C          -14.1774   -13.4935     9.1325 C       5      r5    -0.0275
   2026 H          -13.4485   -13.4944     9.8964 H       0      r0     0.0166
   2027 H          -12.4234   -11.1294     7.1299 H       0      r0     0.0350
   2028 H          -12.1146   -13.6494     8.1532 H       0      r0     0.0201
   2029 H          -11.5873   -11.2505    10.8823 H       0      r0     0.0185
   2030 C          -11.8659   -11.4334     7.9961 C       0      r0    -0.0067
   2031 H          -11.6761   -13.1948    10.4220 H       0      r0     0.0113
   2032 C          -11.2769   -12.8593     8.1226 C       0      r0    -0.0334
   2033 H          -10.6465   -12.8782     7.3333 H       0      r0     0.0244
   2034 C          -10.7948   -12.9838     9.6550 C       7      r7    -0.0139
   2035 C           -9.8541   -11.2992    11.1274 C       6      r6    -0.0114
   2036 C           -9.3669   -12.4686    10.1811 C       6      r6     0.0067
   2037 H           -8.7399   -11.8048     6.8796 H       0      r0     0.0364
   2038 C           -7.8780   -12.5313    10.0304 C       6      r6    -0.0005
   2039 C           -7.4971   -13.5703     9.0632 C       7      r7    -0.0272
   2040 C           -6.9385   -11.4136    10.3861 C       6      r6    -0.0408
   2041 H           -6.8901   -11.2410     9.2525 H       0      r0     0.1280
   2042 H           -6.7960   -12.8774     8.6026 H       0      r0     0.0607
   2043 O           -5.9902   -10.7866     8.0758 O       0      r0    -0.5539
   2044 C           -5.7999   -11.9978    11.1773 C       0      r0    -0.0021
   2045 C           -5.1200   -10.4982     8.9599 C       0      r0     0.3129
   2046 C           -4.5500   -11.1840    11.0900 C       6      r6     0.0147
   2047 C           -3.7474   -13.7689     7.8575 C       6      r6     0.0102
   2048 C           -2.7497   -14.2299     8.7531 C       6      r6    -0.0019
   2049 C           -2.0953   -12.3087     7.0420 C       6      r6    -0.0143
   2050 C           -1.5217   -13.3279     8.8058 C       6      r6    -0.0215
   2051 C           -1.3089   -12.0875     8.2495 C       6      r6     0.0047
   2052 H           -1.2311   -13.1758     9.8877 H       0      r0     0.0234
   2053 C           -0.1673   -11.0524     8.3899 C       0      r0    -0.0365
   2054 C            0.0740   -10.7389    11.0094 C       0      r0    -0.0184
   2055 C            0.6928   -10.9871     9.7190 C       0      r0     0.0012
   2056 H            0.3276   -11.7516     7.6171 H       0      r0     0.0174
   2057 C            1.7676   -12.0551     9.6295 C       0      r0    -0.0064
   2058 C            2.0245   -13.0934     8.6682 C       0      r0    -0.0117
   2059 C            2.3510   -14.1384     7.8240 C       0      r0    -0.0029
   2060 H            3.2793   -10.6604     7.0335 H       0      r0     0.0147
   2061 C            2.6688   -12.1858    10.9354 C       0      r0    -0.0021
   2062 H            3.1481   -10.3167     9.2584 H       0      r0     0.0221
   2063 C            3.5482   -10.9842    11.0270 C       0      r0    -0.0118
   2064 H            4.4830   -12.5036    10.5330 H       0      r0     0.0175
   2065 C            4.7352   -13.6531    10.7437 C       0      r0    -0.0226
   2066 H            6.3656   -10.2296     9.3737 H       0      r0     0.0212
   2067 H            6.3127   -13.0889     9.7294 H       0      r0     0.0212
   2068 H            6.3177   -10.4931     7.5919 H       0      r0     0.0155
   2069 C            7.1395   -13.8411     6.8471 C       0      r0    -0.0093
   2070 C            7.2374   -13.5532     9.5109 C       0      r0    -0.0388
   2071 C            7.2877   -14.3182     8.1633 C       0      r0     0.0019
   2072 H            7.7235   -14.2962    10.3239 H       0      r0     0.0156
   2073 H            7.5463   -11.7239     7.5783 H       0      r0     0.0207
   2074 C            7.9463   -11.2626    10.1568 C       5      r5    -0.0004
   2075 C            8.3150   -12.4020     9.2205 C       0      r0    -0.0073
   2076 C            8.5290   -11.8486     7.8260 C       0      r0    -0.0365
   2077 H            9.1946   -12.9864     9.9973 H       0      r0     0.0168
   2078 C            9.6778   -11.2823     7.5202 C       0      r0     0.0466
   2079 C           10.3404   -14.2574     8.0410 C       0      r0    -0.0180
   2080 C           11.0215   -11.8510     8.1773 C       5      r5    -0.0570
   2081 C           11.1012   -13.0800     8.5996 C       5      r5     0.0057
   2082 C           11.8246   -10.9916     8.9195 C       6      r6     0.2840
   2083 C           12.1241   -12.9762     9.7194 C       5      r5    -0.0060
   2084 C           12.2776   -11.5307    10.0436 C       6      r6    -0.0669
   2085 C           12.8278   -13.9360    10.4298 C       5      r5     0.0012
   2086 C           13.0694   -10.9400    11.0521 C       6      r6     0.0435
   2087 H           14.7258   -13.9953     8.2647 H       0      r0     0.0261
   2088 C           15.4812   -11.5323    11.0741 C       0      r0     0.0071
   2089 C           15.5345   -10.7251     8.5326 C       5      r5     0.2054
   2090 O           15.9590   -11.1695     7.0883 O       5      r5    -0.4848
   2091 C          -15.8361    -7.7287     6.6216 C       7      r7    -0.0081
   2092 C          -14.7329    -6.9955     7.3234 C       5      r5     0.0106
   2093 H          -13.8050    -8.4298     8.9878 H       0      r0     0.0486
   2094 C          -14.1740    -7.4118     8.7172 C       5      r5    -0.0565
   2095 C          -13.4269    -6.3652     9.2274 C       6      r6     0.2252
   2096 O          -12.1355    -6.5354    10.1300 O       6      r6    -0.5156
   2097 H          -12.4295    -9.0323    10.2632 H       0      r0     0.0417
   2098 C          -11.6893   -10.6035     8.9870 C       0      r0     0.0011
   2099 C          -11.6202    -9.2231     9.6811 C       0      r0     0.0307
   2100 C          -10.1922    -9.2225    10.1488 C       0      r0     0.0171
   2101 H           -9.4808    -8.3578    10.1422 H       0      r0     0.0624
   2102 C           -9.2220    -9.9617    10.7319 C       6      r6     0.0079
   2103 O           -8.6952    -8.2756     7.7033 O       0      r0    -0.4866
   2104 H           -6.2267    -9.0378     9.0206 H       0      r0     0.0528
   2105 C           -7.7080    -7.5760     8.0393 C       0      r0     0.3327
   2106 H           -6.7099    -7.1897     7.5825 H       0      r0    -0.0356
   2107 C           -7.2530    -7.4738     9.5144 C       6      r6    -0.0516
   2108 C           -6.7289    -8.7539     9.9866 C       6      r6     0.0021
   2109 C           -6.7098    -9.3344    11.3771 C       6      r6    -0.0013
   2110 C           -6.2557    -6.6998     9.9270 C       6      r6     0.0010
   2111 C           -5.4223    -7.0765    11.0654 C       6      r6    -0.0045
   2112 H           -4.7134    -9.4642     8.5126 H       0      r0     0.0163
   2113 C           -4.2024   -10.3542    10.0172 C       6      r6    -0.0997
   2114 C           -4.1601    -6.4728    11.2394 C       0      r0    -0.0235
   2115 C           -3.6231    -8.9878    10.2854 C       6      r6     0.0175
   2116 C           -3.5880    -8.1357     7.7193 C       0      r0     0.0012
   2117 C           -3.3951    -8.1476     9.1940 C       0      r0    -0.0297
   2118 H           -2.4289    -7.7535     9.2639 H       0      r0     0.0210
   2119 H           -0.3924    -9.8479    10.6022 H       0      r0     0.0197
   2120 H           -0.3890   -10.1236     7.7992 H       0      r0     0.0167
   2121 H           -0.2665    -7.8298     6.8838 H       0      r0     0.0129
   2122 C            1.0169    -7.8515     7.1209 C       0      r0    -0.0177
   2123 C            1.4202    -6.3718     7.6691 C       5      r5    -0.0099
   2124 C            1.3360    -6.3405     9.3073 C       5      r5     0.0023
   2125 C            1.7476    -8.8624     7.3222 C       0      r0     0.0018
   2126 C            2.4528    -6.9502    10.1594 C       5      r5     0.0085
   2127 C            2.7190    -9.7529     7.6383 C       0      r0    -0.0190
   2128 C            3.2554    -9.2704     8.9869 C       0      r0    -0.0147
   2129 C            3.3093    -8.1974     9.9553 C       5      r5     0.0233
   2130 C            3.4693    -8.6457    11.4109 C       5      r5    -0.0037
   2131 H            5.3035    -8.1687    10.9225 H       0      r0     0.0856
   2132 C            6.2897    -8.4613    11.3591 C       6      r6    -0.0008
   2133 O            6.2664    -6.8085     9.7505 O       0      r0    -0.5208
   2134 C            6.5996    -9.5784     7.0154 C       0      r0    -0.0412
   2135 C            7.4376   -10.1770     9.6404 C       5      r5    -0.0307
   2136 C            7.2516    -9.3809    10.7461 C       6      r6     0.0111
   2137 C            7.5084    -6.8493     9.9506 C       0      r0     0.3243
   2138 H            7.8243   -10.2691     8.6976 H       0      r0     0.0297
   2139 H            7.9771    -7.6901    10.0522 H       0      r0    -0.0316
   2140 C            9.9440    -6.5725    11.0412 C       6      r6     0.0071
   2141 C            9.9082    -6.4517     6.8195 C       0      r0    -0.0647
   2142 C           10.0627    -7.8410     6.9156 C       0      r0     0.0543
   2143 H           10.4466    -7.9723     7.9462 H       0      r0     0.0915
   2144 O           11.5914    -9.5561     8.8745 O       6      r6    -0.5382
   2145 H           11.8504    -7.6745     9.7237 H       0      r0     0.0403
   2146 O           12.3502    -6.2116     7.6443 O       5      r5    -0.5214
   2147 C           12.5495    -8.7826     9.7082 C       6      r6     0.2386
   2148 C           13.0198    -9.5998    10.7995 C       6      r6    -0.0673
   2149 H           13.5088    -9.2390    11.6797 H       0      r0     0.0226
   2150 H           14.0963    -6.7397    11.4698 H       0      r0     0.0161
   2151 C           14.0306    -8.3937     9.1619 C       0      r0    -0.0367
   2152 H           13.9848    -7.2881     8.6332 H       0      r0     0.0685
   2153 C           14.7101    -9.6153     8.9574 C       0      r0    -0.0208
   2154 H           15.6517    -8.3001     7.2430 H       0      r0     0.0456
   2155 C          -15.7282    -3.0651     7.5567 C       5      r5    -0.0030
   2156 C          -15.4925    -3.2932     8.9886 C       5      r5    -0.0021
   2157 C          -14.8921    -2.2856     9.8303 C       7      r7    -0.0125
   2158 C          -14.3156    -5.7492     7.0340 C       5      r5     0.0128
   2159 H          -14.1945    -2.9730    10.5527 H       0      r0     0.0264
   2160 C          -13.5954    -5.4479     8.1085 C       6      r6    -0.0605
   2161 C          -12.5338    -4.5495     7.7192 C       6      r6     0.0295
   2162 C          -12.1006    -3.5425    11.3450 C       0      r0    -0.0042
   2163 C          -11.2839    -4.5483     8.4022 C       6      r6    -0.0732
   2164 H          -11.6676    -3.7803    10.2237 H       0      r0     0.0114
   2165 C          -11.2993    -5.4414     9.5799 C       6      r6     0.2405
   2166 C          -10.4875    -3.6488     7.4791 C       5      r5     0.0523
   2167 H          -10.3049    -5.3509     9.8745 H       0      r0    -0.0080
   2168 C           -9.7752    -2.9644     8.5672 C       0      r0     0.0082
   2169 C           -9.4779    -2.3956     9.4773 C       0      r0    -0.0030
   2170 H           -7.8951    -4.8164    10.4620 H       0      r0     0.0208
   2171 C           -6.8877    -5.4422    10.4877 C       0      r0    -0.0153
   2172 H           -5.6880    -3.7385    11.4179 H       0      r0     0.0152
   2173 C           -6.1852    -4.2256    10.5610 C       0      r0    -0.0233
   2174 H           -6.1637    -5.5752     8.2179 H       0      r0     0.0184
   2175 C           -5.6306    -4.6561     8.2650 C       0      r0    -0.0156
   2176 C           -5.2132    -4.0143     9.5225 C       0      r0    -0.0036
   2177 H           -3.6368    -5.7820    10.3093 H       0      r0     0.0147
   2178 C           -3.9567    -3.1107     9.8269 C       6      r6    -0.0011
   2179 H           -2.6435    -4.6511    10.8125 H       0      r0     0.0145
   2180 C           -2.6758    -3.6997    10.2482 C       6      r6    -0.0211
   2181 C           -2.3974    -2.0897     8.3792 C       6      r6     0.0064
   2182 H           -1.7637    -5.2194     8.4152 H       0      r0     0.0197
   2183 C           -1.4389    -3.1391    10.2064 C       6      r6     0.0035
   2184 C           -1.1084    -2.2465     9.1262 C       6      r6    -0.0042
   2185 C           -0.7131    -5.7553     8.4490 C       5      r5    -0.0209
   2186 C            0.0806    -5.1375    11.0426 C       0      r0     0.0111
   2187 C            0.1404    -5.6959     7.3894 C       5      r5     0.0051
   2188 C            0.1702    -5.7687     9.6462 C       5      r5    -0.0041
   2189 C            0.8047    -2.9206    11.4091 C       5      r5     0.1994
   2190 C            1.3591    -2.8382     8.9607 C       7      r7    -0.0194
   2191 C            1.6308    -3.3801    10.2336 C       5      r5    -0.0197
   2192 H            2.1794    -2.9494     8.2961 H       0      r0     0.0217
   2193 H            2.4274    -5.9832     7.1559 H       0      r0     0.0255
   2194 C            2.7314    -4.2439    10.4729 C       5      r5    -0.0444
   2195 H            3.7074    -4.2903     9.8960 H       0      r0     0.0396
   2196 C            5.0996    -1.8961     9.4425 C       0      r0    -0.0038
   2197 H            5.6743    -4.0195     8.7117 H       0      r0     0.0446
   2198 C            5.6281    -2.9697     8.3794 C       0      r0    -0.0288
   2199 C            6.3602    -3.2101     7.0838 C       0      r0    -0.0217
   2200 C            6.6162    -2.9930    10.8888 C       0      r0     0.0435
   2201 C            7.3169    -4.2844    11.1788 C       0      r0     0.0025
   2202 C            8.5654    -6.0134    10.8630 C       6      r6    -0.0569
   2203 C            8.4864    -4.7388    10.1942 C       6      r6     0.0013
   2204 C            9.4444    -2.1954    10.2767 C       0      r0    -0.0236
   2205 C            9.5465    -3.7994    10.3588 C       6      r6    -0.0050
   2206 H            9.8376    -3.7152     7.1021 H       0      r0     0.0360
   2207 C           10.6411    -4.3714     7.2476 C       5      r5    -0.0845
   2208 C           10.8640    -4.0369    10.9781 C       6      r6    -0.0048
   2209 C           11.0221    -5.6221     7.2318 C       5      r5     0.2610
   2210 C           11.8623    -3.8284     7.8627 C       5      r5    -0.0471
   2211 C           12.0502    -3.1148    11.0847 C       0      r0    -0.0030
   2212 H           12.5098    -2.9219     7.9298 H       0      r0     0.0192
   2213 C           12.8469    -4.8192     8.0953 C       5      r5     0.2074
   2214 H           13.5314    -2.6000     9.4154 H       0      r0     0.0149
   2215 C           14.1429    -4.1589     7.9462 C       0      r0    -0.0674
   2216 C           14.3400    -5.6618    11.3603 C       0      r0    -0.0122
   2217 C           14.4032    -2.8791     8.5512 C       5      r5    -0.0042
   2218 C           15.1808    -5.1983    10.1648 C       0      r0    -0.0024
   2219 C           15.2225    -2.2786     7.4439 C       5      r5    -0.0013
   2220 C           15.3912    -3.8836     9.5743 C       5      r5     0.0078
   2221 H           14.6307    -5.9497     9.5856 H       0      r0     0.0215
   2222 C          -15.4630     0.0722     6.9323 C       7      r7    -0.0140
   2223 C          -15.5912     1.1096     7.8381 C       7      r7     0.0043
   2224 C          -15.1444    -1.5010    11.1940 C       0      r0    -0.0147
   2225 H          -15.3343    -0.5341    11.1055 H       0      r0     0.0235
   2226 C          -13.9361    -1.4056     8.8417 C       7      r7    -0.0059
   2227 C          -13.9099    -1.5144     7.3968 C       7      r7     0.0009
   2228 C          -13.8271    -0.0332     7.2069 C       7      r7    -0.0174
   2229 C          -13.6692     0.0791     8.7952 C       7      r7    -0.0013
   2230 C          -13.5513     1.4454     9.4494 C       7      r7    -0.0029
   2231 C          -12.3340     1.8717    10.2645 C       6      r6    -0.0015
   2232 C          -10.5491     1.9569     7.4212 C       6      r6     0.0133
   2233 H          -10.6748     0.0309     8.1440 H       0      r0     0.0454
   2234 C          -10.1511     0.5929     7.5157 C       6      r6    -0.1002
   2235 H           -9.4759    -0.7569    10.7919 H       0      r0     0.0220
   2236 C           -9.5425    -1.9037    11.0564 C       0      r0    -0.0157
   2237 H           -8.0083     1.3927     8.3537 H       0      r0     0.0229
   2238 H           -7.2745     0.0657     8.7374 H       0      r0     0.0236
   2239 C           -7.1725     1.9675     7.7859 C       5      r5    -0.0329
   2240 C           -6.8831     0.5467    10.6515 C       0      r0     0.0030
   2241 C           -6.5999    -0.1331     9.6470 C       0      r0    -0.0240
   2242 H           -6.4798     1.2362     7.5323 H       0      r0     0.0192
   2243 C           -5.0677    -0.2622     9.9691 C       6      r6     0.0029
   2244 C           -4.7703    -1.1522    10.8174 C       6      r6    -0.0142
   2245 H           -4.5440     1.0684     8.5426 H       0      r0     0.0116
   2246 H           -4.5673    -1.8882     8.2336 H       0      r0     0.0252
   2247 C           -4.0637     0.5468     9.4331 C       6      r6    -0.0030
   2248 C           -3.7579    -2.2408     8.7734 C       6      r6    -0.0184
   2249 C           -2.8631     0.8293    10.0212 C       6      r6    -0.0700
   2250 C           -2.6074    -0.3191    10.9245 C       6      r6     0.0048
   2251 C           -2.4905    -1.2591     7.1541 C       0      r0    -0.0077
   2252 C           -1.7199     1.9374     9.8262 C       0      r0     0.3635
   2253 H           -1.7272    -0.0435    11.4540 H       0      r0     0.0344
   2254 C            0.0947    -2.2165     8.5077 C       7      r7    -0.0004
   2255 C            0.2426    -1.5095     7.2714 C       0      r0    -0.0042
   2256 H            2.1551     1.3127     7.0178 H       0      r0     0.0289
   2257 C            2.6858     1.5489     9.2255 C       6      r6    -0.0067
   2258 C            2.9327     1.0543     7.8070 C       6      r6    -0.0157
   2259 C            3.1984     0.8316    10.3104 C       6      r6     0.0025
   2260 C            3.6640    -0.4944    10.5951 C       6      r6    -0.0032
   2261 C            3.6681    -0.1538     8.0228 C       6      r6    -0.0048
   2262 C            4.0287    -1.1366     9.2205 C       6      r6    -0.0033
   2263 H            5.4984     0.9021    10.3658 H       0      r0     0.0183
   2264 C            6.2232    -1.6676    10.5607 C       0      r0     0.0043
   2265 C            6.5530     0.5864     6.9387 C       6      r6     0.0024
   2266 H            6.7964    -1.2395     7.8891 H       0      r0     0.0189
   2267 C            7.1651    -0.1453     8.0214 C       6      r6    -0.0219
   2268 H            7.7517     1.2706     9.9324 H       0      r0     0.0211
   2269 C            8.5363     1.0460     9.3086 C       6      r6    -0.0352
   2270 C            8.4461    -0.2458     8.7246 C       6      r6     0.0041
   2271 C            8.9406    -1.3174     9.4922 C       0      r0    -0.0055
   2272 H            9.6981     1.3937     9.4889 H       0      r0     0.0185
   2273 H           10.7443    -0.7782     6.5641 H       0      r0     0.0223
   2274 H           11.1937     0.7366     9.4499 H       0      r0     0.0131
   2275 H           11.2649    -0.9302    10.7678 H       0      r0     0.0203
   2276 C           11.4467    -0.2609     8.7803 C       0      r0    -0.0282
   2277 C           11.3224    -0.5898     7.4250 C       0      r0    -0.0127
   2278 C           11.8749    -1.5388    11.2970 C       0      r0    -0.0360
   2279 H           12.1890    -0.6459     9.5669 H       0      r0     0.0171
   2280 C           12.6643    -1.0969     6.9925 C       0      r0     0.0019
   2281 C           13.1819    -0.7155    11.2280 C       0      r0    -0.0196
   2282 H           13.9867     0.9117     7.7722 H       0      r0     0.0168
   2283 H           13.6104    -0.3219    10.1906 H       0      r0     0.0154
   2284 C           13.8271    -0.2437     7.4299 C       0      r0    -0.0149
   2285 C           15.0780    -0.8350     7.2808 C       0      r0     0.0008
   2286 C          -15.8113     5.5737     7.5289 C       7      r7     0.0073
   2287 C          -15.6735     2.0921     8.6809 C       7      r7    -0.0216
   2288 H          -15.8613     2.2866    11.5958 H       0      r0     0.0191
   2289 C          -14.9223     3.8869    11.1492 C       0      r0     0.0064
   2290 C          -14.9200     2.6101    11.1331 C       0      r0    -0.0224
   2291 C          -14.6990     2.3313     9.7427 C       7      r7     0.0044
   2292 C          -14.5480     5.0961    10.3829 C       0      r0    -0.0230
   2293 C          -14.1595     5.3185     8.8316 C       7      r7     0.0042
   2294 H          -13.5089     5.6831    10.8330 H       0      r0     0.0172
   2295 C          -13.0576     4.8460     7.9097 C       7      r7    -0.0172
   2296 H          -12.2627     1.9984     7.5137 H       0      r0     0.0237
   2297 C          -11.6177     2.6200     8.1589 C       0      r0    -0.0195
   2298 H          -11.8468     4.9754     8.1153 H       0      r0     0.0203
   2299 C          -11.6350     2.8581     9.5493 C       6      r6     0.0033
   2300 C          -10.4479     3.3245    10.6600 C       6      r6    -0.0014
   2301 H           -9.8528     5.6006     7.7408 H       0      r0     0.0169
   2302 C           -9.3725     3.9357     9.8904 C       0      r0    -0.0047
   2303 H           -7.9600     5.0644     8.7188 H       0      r0     0.0173
   2304 C           -8.1199     3.9531     9.1899 C       0      r0    -0.0202
   2305 C           -6.8700     2.9645     8.9655 C       5      r5    -0.0118
   2306 H           -6.8681     3.0572    10.2858 H       0      r0     0.0149
   2307 C           -6.0721     3.6138     8.1737 C       5      r5    -0.0013
   2308 C           -4.8501     3.7299     9.7496 C       6      r6    -0.0238
   2309 C           -4.6980     4.1952     8.3415 C       6      r6     0.0028
   2310 C           -4.7892     5.9355     8.3826 C       6      r6     0.0025
   2311 H           -4.8198     2.7622    10.0248 H       0      r0     0.0194
   2312 C           -4.3621     4.7796    10.6692 C       6      r6     0.0036
   2313 C           -3.5429     3.8697     7.3788 C       0      r0    -0.0047
   2314 C           -2.2874     4.2924     7.8625 C       0      r0     0.0059
   2315 H           -1.7309     1.6211     8.7162 H       0      r0    -0.0347
   2316 O           -1.0061     2.5771    10.5481 O       0      r0    -0.5189
   2317 H           -0.6778     5.3028     8.5815 H       0      r0     0.0365
   2318 C           -0.8118     4.4210     7.9026 C       0      r0     0.0106
   2319 C            0.4443     4.3650     7.1437 C       0      r0    -0.0154
   2320 C            1.1268     5.7100     7.0311 C       6      r6     0.0073
   2321 H            1.0871     5.4380     9.3917 H       0      r0     0.0545
   2322 C            1.6783     5.6672     8.3902 C       6      r6    -0.0152
   2323 H            2.5759     2.6355     9.2511 H       0      r0     0.0371
   2324 C            3.8323     1.9252    11.2931 C       0      r0    -0.0175
   2325 C            4.5573     2.8396    10.5368 C       0      r0    -0.0018
   2326 C            5.2367     3.8249    10.0742 C       0      r0    -0.0053
   2327 C            5.3520     5.0467    10.8013 C       0      r0    -0.0190
   2328 H            5.4908     5.5459     9.8251 H       0      r0     0.0174
   2329 H            5.9154     5.8715     8.3383 H       0      r0     0.0209
   2330 C            5.7674     2.9272     7.3101 C       5      r5     0.0036
   2331 C            6.0931     3.7659     8.6499 C       5      r5    -0.0181
   2332 C            6.5693     5.1483     7.9807 C       5      r5    -0.0207
   2333 H            7.0546     4.0304     9.1767 H       0      r0     0.0190
   2334 C            6.8652     1.9018     7.4271 C       6      r6    -0.0017
   2335 H            7.9468     5.0443    10.2804 H       0      r0     0.0142
   2336 C            8.0828     5.7248     8.0370 C       0      r0    -0.0179
   2337 C            8.1447     2.1983     8.2620 C       6      r6     0.0012
   2338 H            8.8050     6.0661     7.3055 H       0      r0     0.0184
   2339 C            8.4274     5.5330     9.3129 C       0      r0    -0.0133
   2340 H            9.4353     3.4988     6.8761 H       0      r0     0.0228
   2341 C            9.2524     3.1093     7.8343 C       0      r0    -0.0213
   2342 H           10.1510     3.5769    11.1534 H       0      r0     0.0198
   2343 C           10.3166     6.2062    10.7811 C       0      r0     0.0260
   2344 C           10.5399     2.3786     7.8001 C       0      r0    -0.0045
   2345 C           11.6562     3.0580     8.5021 C       7      r7    -0.0056
   2346 C           11.7197     5.1074     7.0588 C       0      r0    -0.0039
   2347 C           12.1632     2.6966     9.7449 C       7      r7    -0.0082
   2348 C           12.0903     4.5029     8.2479 C       7      r7     0.0015
   2349 C           12.5767     2.9701    11.1579 C       7      r7    -0.0200
   2350 C           13.2838     5.3229     8.9028 C       7      r7    -0.0019
   2351 C           13.6453     5.3513    10.3092 C       7      r7    -0.0019
   2352 H           13.6854     6.2861     8.2220 H       0      r0     0.0548
   2353 H           14.2237     6.2236    10.5642 H       0      r0     0.0429
   2354 H           15.6553     2.9984     8.6740 H       0      r0     0.0179
   2355 H          -15.7262     7.1371     9.1419 H       0      r0     0.0258
   2356 H          -14.6961    10.2012     6.9365 H       0      r0     0.0139
   2357 C          -15.3492     6.2743     8.4447 C       7      r7    -0.0228
   2358 C          -14.8490    10.0302     8.0653 C       0      r0    -0.0180
   2359 C          -14.1327     8.7600     8.5971 C       0      r0    -0.0013
   2360 C          -14.2880     8.5458    11.3183 C       0      r0    -0.0081
   2361 C          -14.1471     8.5774     9.9369 C       0      r0    -0.0032
   2362 H          -14.4235     8.9522     6.1449 H       0      r0     0.0124
   2363 C          -12.9140     8.3665     7.9698 C       7      r7    -0.0001
   2364 C          -11.4268     8.7696     8.4654 C       7      r7    -0.0047
   2365 C          -10.9958     9.3053     9.8394 C       0      r0    -0.0019
   2366 C          -10.7682     8.6632     7.1801 C       7      r7     0.0094
   2367 C          -10.8052     8.4753    10.9132 C       0      r0    -0.0005
   2368 C          -10.6524     6.9068    10.6534 C       0      r0    -0.0161
   2369 H          -10.1554     6.6156     9.5421 H       0      r0     0.0176
   2370 C           -8.3222     8.5289    11.4038 C       0      r0    -0.0129
   2371 H           -8.2161     8.3587    10.2994 H       0      r0     0.0184
   2372 H           -7.0299     8.8961     8.8000 H       0      r0     0.0166
   2373 C           -6.4862     9.7718     8.2851 C       0      r0    -0.0190
   2374 C           -5.4879     9.8646     7.5275 C       0      r0    -0.0129
   2375 H           -5.2948     7.6669     9.0367 H       0      r0     0.0202
   2376 C           -5.1144     6.6714     9.5227 C       6      r6    -0.0167
   2377 C           -5.1521     5.9018    10.6728 C       6      r6     0.0032
   2378 C           -4.9196     6.4189     7.0425 C       7      r7    -0.0070
   2379 C           -4.1721     7.7585     7.0995 C       0      r0    -0.0013
   2380 C           -3.5483     9.5086    11.0424 C       7      r7    -0.0065
   2381 C           -3.0745     8.3322     7.8778 C       0      r0    -0.0222
   2382 H           -2.7241     8.4964     8.8749 H       0      r0     0.0231
   2383 C           -2.3910     9.2447     6.9641 C       0      r0    -0.0083
   2384 C           -2.4781     8.4682    10.9877 C       7      r7     0.0178
   2385 C           -1.3272     8.1786    10.1956 C       7      r7    -0.0155
   2386 H           -1.2462     7.0350    10.0859 H       0      r0     0.0641
   2387 C           -0.3615     9.2155     9.6173 C       7      r7     0.0040
   2388 C            0.7849     8.0008     7.1462 C       6      r6    -0.0236
   2389 C            1.1787     9.0542     9.5694 C       0      r0    -0.0186
   2390 C            1.3215     8.0451     8.4330 C       6      r6     0.0022
   2391 H            1.3730    10.1592     9.5553 H       0      r0     0.0220
   2392 C            1.8872     8.6697    11.2858 C       0      r0     0.0083
   2393 C            2.5842     6.9295     8.3061 C       6      r6     0.0036
   2394 H            2.9007     7.8584    10.6923 H       0      r0     0.0179
   2395 C            3.8110     7.0582     8.1512 C       0      r0    -0.0081
   2396 H            4.5744     9.9524    11.1726 H       0      r0     0.0171
   2397 H            3.9355     8.9870     9.6004 H       0      r0     0.0174
   2398 H            3.9941     9.8766     8.3029 H       0      r0     0.0188
   2399 C            4.6860     9.1935     8.7969 C       0      r0    -0.0366
   2400 C            4.7533     7.9025     7.6237 C       0      r0    -0.0024
   2401 C            6.1203     9.2069     8.9067 C       0      r0     0.0040
   2402 C            6.8135     8.7505    10.1076 C       0      r0    -0.0096
   2403 C            6.9635     9.7355     7.7438 C       0      r0     0.0026
   2404 C            7.5804     8.6192    11.3731 C       0      r0    -0.0178
   2405 C            9.7780     6.1566     9.4580 C       0      r0    -0.0130
   2406 H           10.7093     6.3526     8.5768 H       0      r0     0.0516
   2407 H           11.0114     9.9315     8.7684 H       0      r0     0.0085
   2408 C           11.1083     8.8674     8.2070 C       0      r0     0.2927
   2409 O           12.1540     8.3757     8.7615 O       0      r0    -0.4724
   2410 H           15.4345     8.5024     7.1388 H       0      r0     0.0332
   2411 C          -14.3110    11.0851     8.3811 C       0      r0    -0.0013
   2412 C          -13.8668    12.9424    11.3374 C       0      r0    -0.0202
   2413 C          -13.3946    12.0331     9.0970 C       0      r0    -0.0006
   2414 C          -13.2899    13.1240     8.1583 C       0      r0    -0.0095
   2415 C          -13.0868    12.0637    10.4840 C       0      r0     0.0087
   2416 C          -12.4869    12.5743     7.1099 C       0      r0     0.0010
   2417 C          -12.3592    11.1333    10.9464 C       0      r0    -0.0233
   2418 C          -11.2195    10.7019    10.3674 C       0      r0     0.0040
   2419 H          -11.2406    13.7357     9.7106 H       0      r0     0.0184
   2420 C          -10.1209    11.3589     9.8809 C       0      r0    -0.0019
   2421 C          -10.2800    14.2331    10.0161 C       7      r7    -0.0185
   2422 C           -9.2216    12.0975     9.0957 C       5      r5    -0.0039
   2423 C           -8.9997    13.4775     9.4839 C       5      r5     0.0011
   2424 H           -8.4290    10.8485     7.5475 H       0      r0     0.0150
   2425 C           -7.9027    11.6788     8.4039 C       5      r5    -0.0146
   2426 C           -7.7182    13.7776     9.1100 C       5      r5     0.0018
   2427 C           -7.0194    10.7585     9.3428 C       0      r0    -0.0022
   2428 C           -7.0719    12.8024     7.7483 C       6      r6     0.0012
   2429 C           -6.3061    10.8015    10.4575 C       0      r0    -0.0061
   2430 H           -6.1848    12.7897     9.9572 H       0      r0     0.0230
   2431 C           -5.6320    13.2538     8.1132 C       6      r6    -0.0005
   2432 C           -5.2420    12.7020     9.3791 C       7      r7    -0.0190
   2433 C           -4.8825    14.2429     7.3804 C       6      r6     0.0009
   2434 H           -5.2688    11.0397     7.3906 H       0      r0     0.0220
   2435 C           -4.0904    12.9154    10.3018 C       6      r6    -0.0020
   2436 C           -3.4493    10.7991    10.4905 C       6      r6     0.0018
   2437 H           -3.1263    11.3241     8.4332 H       0      r0     0.0240
   2438 C           -2.7980    13.3112     9.7727 C       6      r6    -0.0038
   2439 C           -2.5512    11.0621     9.2443 C       6      r6    -0.0225
   2440 C           -1.7920    12.3693     9.7117 C       6      r6     0.0051
   2441 C           -0.9041    10.4515     8.9568 C       7      r7    -0.0033
   2442 H           -0.8087    11.1034    11.2346 H       0      r0     0.0243
   2443 C           -0.5166    13.0098     9.7612 C       0      r0    -0.0277
   2444 C           -0.2429    10.4918     7.5740 C       0      r0    -0.0110
   2445 H           -0.1619    13.7571     9.1726 H       0      r0     0.0212
   2446 C            0.4828    12.4825    10.6450 C       7      r7     0.0056
   2447 H            0.9382    13.5708     6.5924 H       0      r0     0.0181
   2448 C            1.7261    12.1751     9.8963 C       7      r7    -0.0257
   2449 H            1.9001    13.0381     9.3361 H       0      r0     0.0235
   2450 C            2.9284    11.3434    10.4049 C       7      r7     0.0001
   2451 C            3.3403    13.3887     7.8788 C       0      r0    -0.0078
   2452 C            3.6036    10.5304    11.2940 C       7      r7    -0.0194
   2453 C            4.6495    13.6287     8.7272 C       0      r0    -0.0002
   2454 C            4.8549    14.2369     9.7865 C       0      r0    -0.0033
   2455 H            5.1546    11.8268     8.0132 H       0      r0     0.0189
   2456 C            5.8645    12.7413     8.2528 C       0      r0    -0.0132
   2457 C            7.2166    12.9576     8.3377 C       0      r0    -0.0015
   2458 C            7.8970    12.0080     7.3455 C       0      r0    -0.0034
   2459 C            8.0284    10.6549     8.0693 C       0      r0    -0.0051
   2460 C            8.8294    10.5789     9.3398 C       0      r0    -0.0029
   2461 C            9.3241    10.4422    10.4033 C       0      r0    -0.0141
   2462 H            8.9719    13.6051    11.8295 H       0      r0     0.0133
   2463 H           10.2847    10.5569    11.1151 H       0      r0     0.0256
   2464 C           10.9338    13.2697     8.1465 C       0      r0     0.0085
   2465 C           11.3040    12.0569     8.2348 C       0      r0    -0.0304
   2466 H           12.0698    11.3009     8.2420 H       0      r0     0.0339
   2467 C           14.2079    13.8636     8.5289 C       0      r0    -0.0226
   2468 C           13.9689    14.0797     9.9860 C       5      r5     0.0010
   2469 C           14.1110    10.2102     7.0222 C       5      r5     0.0363
   2470 C           14.6533    12.9776    11.0154 C       5      r5    -0.0024
   2471 C           14.3180    12.5357     8.0964 C       0      r0     0.0047
   2472 C           14.6688    11.3040     8.0472 C       0      r0    -0.0261
   2473 H           15.0587    10.8802     8.9507 H       0      r0     0.0361
   2474 C          -15.5520   -12.3739    14.9638 C       0      r0    -0.0037
   2475 C          -15.3823   -13.1928    12.5037 C       0      r0     0.0029
   2476 C          -14.7191   -11.8209    12.5414 C       0      r0    -0.0264
   2477 C          -14.8623   -11.4164    13.9209 C       0      r0    -0.0025
   2478 H          -13.8281   -11.5699    11.7819 H       0      r0     0.0147
   2479 H          -12.6930   -11.9276    12.7301 H       0      r0     0.0182
   2480 C          -12.1149   -12.2203    15.7319 C       0      r0     0.0078
   2481 C          -11.9429   -11.1430    12.1951 C       0      r0    -0.0504
   2482 C          -11.9555   -10.7947    15.7723 C       0      r0    -0.0661
   2483 C          -10.9556   -13.5564    14.0900 C       0      r0    -0.0025
   2484 C          -10.4450   -11.3176    12.6194 C       0      r0     0.0145
   2485 C          -10.0272   -12.5487    13.3174 C       0      r0    -0.0029
   2486 H           -7.6383   -10.9635    12.4910 H       0      r0     0.0222
   2487 C           -7.7612   -10.3393    11.4595 C       6      r6    -0.0004
   2488 H           -7.4960   -12.4840    12.9374 H       0      r0     0.0217
   2489 C           -6.6913   -13.3142    12.9759 C       0      r0    -0.0168
   2490 C           -6.2129   -10.5009    15.7576 C       0      r0     0.0288
   2491 C           -5.4898   -13.2694    11.9289 C       0      r0    -0.0158
   2492 H           -4.6725   -14.0524    11.7188 H       0      r0     0.0201
   2493 C           -4.2281   -12.5985    15.5309 C       0      r0     0.0020
   2494 C           -3.9880   -12.9577    14.2727 C       0      r0    -0.0167
   2495 C           -3.5476   -12.3596    12.9223 C       0      r0    -0.0106
   2496 H           -3.0618   -13.7044    14.2247 H       0      r0     0.0175
   2497 C           -3.5292   -11.1815    12.1369 C       6      r6    -0.0034
   2498 H           -1.8526   -10.7382    14.3099 H       0      r0     0.0491
   2499 H           -1.1719   -12.5524    13.9530 H       0      r0     0.0225
   2500 C           -0.1479   -12.5347    14.2047 C       5      r5    -0.0022
   2501 C            0.4526   -12.1870    12.8909 C       5      r5    -0.0039
   2502 H            0.8532   -13.7701    15.8437 H       0      r0     0.0488
   2503 C            0.8815   -13.2636    14.8717 C       5      r5    -0.0051
   2504 C            0.8723   -10.8109    12.2079 C       0      r0    -0.0001
   2505 C            1.5550   -12.7903    13.1000 C       5      r5    -0.0005
   2506 C            1.7881   -13.8065    13.8817 C       5      r5     0.0081
   2507 C            2.6033   -12.6833    12.2566 C       5      r5    -0.0051
   2508 C            3.4365   -13.9032    12.5928 C       5      r5    -0.0031
   2509 H            3.8750   -12.1715    13.5340 H       0      r0     0.0271
   2510 C            4.8886   -11.5662    13.5498 C       0      r0    -0.0566
   2511 H            5.6110   -11.2464    14.4777 H       0      r0     0.0314
   2512 C            4.8760   -10.1688    12.7864 C       0      r0     0.0301
   2513 C            5.4744   -13.6080    15.4984 C       5      r5    -0.0356
   2514 H            5.5344   -11.9845    12.7244 H       0      r0     0.0208
   2515 C            6.7327   -13.1435    15.8160 C       6      r6     0.0127
   2516 H            7.0893   -11.2298    14.8764 H       0      r0     0.0249
   2517 C            7.5842   -11.9551    15.4700 C       6      r6    -0.0301
   2518 C            8.4827   -11.1202    11.3693 C       5      r5     0.0048
   2519 C            9.4140   -10.7384    15.6590 C       0      r0     0.0347
   2520 C            9.1585   -12.0787    12.3726 C       0      r0    -0.0218
   2521 H            9.6654   -12.9742    12.0252 H       0      r0     0.0188
   2522 C            9.9336   -11.2970    13.2864 C       0      r0    -0.0099
   2523 C           10.3435   -10.5911    14.4077 C       0      r0     0.0222
   2524 C           11.6794   -10.8910    14.4494 C       0      r0     0.0183
   2525 C           12.9419   -10.9663    14.8668 C       0      r0     0.0122
   2526 C           13.4280   -14.0108    14.1751 C       0      r0    -0.0038
   2527 C           14.2664   -13.3596    14.5247 C       0      r0    -0.0009
   2528 H           14.6677   -11.3195    12.9940 H       0      r0     0.0217
   2529 C           14.2508   -10.8209    15.2299 C       0      r0    -0.0017
   2530 C           14.3649   -11.4237    11.7650 C       0      r0    -0.0259
   2531 C           15.1612   -12.0827    14.8823 C       0      r0    -0.0044
   2532 C          -15.0671    -7.7665    15.2942 C       0      r0    -0.0250
   2533 C          -14.4401    -9.1280    15.6878 C       3      r3    -0.0209
   2534 C          -14.0856    -7.0991    14.3068 C       5      r5     0.2024
   2535 C          -14.2653   -10.1551    14.5147 C       3      r3    -0.0101
   2536 C          -13.2214    -7.7451    13.4976 C       5      r5    -0.0455
   2537 C          -12.9983    -9.8643    15.2268 C       3      r3     0.0146
   2538 H          -12.7521    -8.8025    13.4681 H       0      r0     0.0288
   2539 C          -12.5342    -6.6459    12.7870 C       5      r5    -0.0439
   2540 H          -12.5209   -10.3848    12.6563 H       0      r0     0.0250
   2541 H          -11.5990    -6.7777    12.3688 H       0      r0     0.0711
   2542 C          -10.0453    -6.4991    15.7171 C       0      r0     0.0374
   2543 C           -7.8985    -6.8633    14.7480 C       0      r0     0.0001
   2544 C           -7.1935    -7.8123    15.5887 C       0      r0     0.0351
   2545 C           -6.4223    -8.4236    14.5598 C       0      r0     0.0066
   2546 C           -5.9146    -7.9983    12.0415 C       6      r6     0.0007
   2547 C           -5.8812    -7.6552    13.3637 C       0      r0    -0.0265
   2548 C           -5.7936    -9.6616    14.7095 C       0      r0    -0.0202
   2549 H           -5.3209    -6.6189    13.2911 H       0      r0     0.0137
   2550 H           -5.0199   -10.2638    14.1438 H       0      r0     0.0207
   2551 C           -3.2989    -8.8096    11.7664 C       6      r6    -0.0066
   2552 C           -3.2563    -7.3677    11.9869 C       0      r0    -0.0230
   2553 C           -2.6409    -9.9230    12.4233 C       6      r6    -0.0055
   2554 H           -2.7341    -6.8022    12.8187 H       0      r0     0.0175
   2555 H           -2.2199    -8.8964    14.3170 H       0      r0     0.0267
   2556 C           -1.9396    -9.6772    13.7132 C       0      r0    -0.0347
   2557 H           -1.1673    -7.7457    14.8990 H       0      r0     0.0225
   2558 C           -0.7863    -7.6613    13.9236 C       0      r0    -0.0216
   2559 C           -0.6501    -8.8629    13.0284 C       0      r0    -0.0128
   2560 H           -1.3112    -8.7823    12.1430 H       0      r0     0.0191
   2561 C           -0.5043    -6.6004    13.1302 C       0      r0     0.0028
   2562 C            0.7071    -9.6298    12.9595 C       0      r0     0.0005
   2563 H            2.0634   -10.3198    14.5593 H       0      r0     0.0261
   2564 C            1.9416    -9.4558    13.7633 C       0      r0    -0.0183
   2565 C            2.3124    -6.7399    11.6790 C       5      r5     0.0028
   2566 C            2.6805    -8.2908    13.9445 C       0      r0     0.0035
   2567 C            2.8463    -7.6786    15.3076 C       0      r0    -0.0111
   2568 C            2.8831    -7.8729    12.4426 C       5      r5     0.0029
   2569 C            4.1960    -7.0940    15.7195 C       0      r0    -0.0452
   2570 C            4.4077    -9.9012    11.3283 C       0      r0    -0.0109
   2571 H            4.8104    -6.9834    14.8160 H       0      r0     0.0945
   2572 H            4.6137    -7.9652   -15.4931 H       0      r0     0.0583
   2573 C            6.1149    -9.4754    12.4722 C       6      r6    -0.0575
   2574 H            6.9307    -7.5654    11.8135 H       0      r0     0.0432
   2575 O            6.6091    -8.4753    14.8591 O       0      r0    -0.5642
   2576 C            7.0367    -8.9250    13.4526 C       6      r6     0.2393
   2577 H            7.3642    -8.7363    15.6316 H       0      r0     0.2273
   2578 C            8.2341    -9.7381    11.6507 C       6      r6    -0.0008
   2579 C            8.4251    -8.9661    12.9627 C       6      r6    -0.0462
   2580 C            9.9063    -7.3904    12.0773 C       0      r0    -0.0037
   2581 C            9.7468    -8.1610    12.9664 C       0      r0    -0.0096
   2582 H           10.2295    -8.3373    13.8500 H       0      r0     0.0512
   2583 C           10.6155    -7.1433    15.6715 C       6      r6     0.2858
   2584 C           11.4557    -6.3768    14.8810 C       5      r5    -0.0489
   2585 H           13.1693    -6.6652    13.7731 H       0      r0     0.0177
   2586 H           13.5071    -7.2879    15.8092 H       0      r0     0.0565
   2587 C           15.8609    -7.4015    15.7069 C       0      r0     0.0266
   2588 H          -14.8608    -2.9519    12.9231 H       0      r0     0.0470
   2589 C          -15.2682    -2.0962    12.4883 C       0      r0    -0.0124
   2590 O          -14.6057    -5.7689    13.6754 O       5      r5    -0.4847
   2591 H          -12.8322    -3.2255    14.0511 H       0      r0     0.0277
   2592 C          -13.2700    -5.6179    12.9007 C       5      r5     0.2294
   2593 C          -13.0411    -2.4603    14.8666 C       0      r0     0.0113
   2594 C          -12.6244    -4.5479    12.0341 C       0      r0    -0.0173
   2595 C          -10.9193    -2.5208    11.5200 C       0      r0    -0.0115
   2596 H          -10.6552    -5.1891    14.2889 H       0      r0     0.0230
   2597 C          -10.0278    -5.9773    14.6884 C       0      r0    -0.0223
   2598 H          -10.1746    -2.7790    14.0072 H       0      r0     0.2103
   2599 C           -8.6138    -5.9505    14.0882 C       0      r0     0.0063
   2600 H           -8.6020    -5.9807    12.1916 H       0      r0     0.0265
   2601 C           -8.4769    -5.1403    12.7836 C       0      r0    -0.0279
   2602 C           -8.3928    -2.4424    12.0030 C       0      r0     0.0037
   2603 C           -8.4441    -3.7650    12.5523 C       0      r0    -0.0089
   2604 H           -8.0632    -3.3205    14.8225 H       0      r0     0.0513
   2605 C           -6.4519    -2.4404    13.4547 C       0      r0    -0.0072
   2606 C           -5.5153    -2.4201    14.1432 C       0      r0     0.0014
   2607 C           -4.6047    -2.5117    15.1856 C       0      r0    -0.0201
   2608 H           -3.5914    -2.7103    14.9384 H       0      r0     0.0250
   2609 H           -1.5798    -3.8727    11.8581 H       0      r0     0.0315
   2610 C           -0.6944    -3.7290    11.2403 C       7      r7    -0.0355
   2611 C           -0.2255    -5.8743    11.9654 C       0      r0     0.0006
   2612 H            0.4001    -4.3870   -15.8884 H       0      r0     0.0290
   2613 O            1.5771    -3.2504    12.7313 O       5      r5    -0.4744
   2614 H            1.4416    -3.3158    15.0044 H       0      r0     0.0632
   2615 C            2.5269    -2.9735    15.3625 C       0      r0    -0.0074
   2616 C            2.7004    -4.2542    11.9120 C       5      r5     0.1756
   2617 C            2.4557    -5.4129    12.3287 C       0      r0    -0.0288
   2618 H            2.1745    -5.8107    13.4392 H       0      r0     0.0375
   2619 C            3.6492    -3.7410    15.0384 C       0      r0     0.0116
   2620 H            3.8469    -2.1441    12.2498 H       0      r0     0.0541
   2621 H            3.6384    -4.7021    14.2407 H       0      r0     0.0401
   2622 C            4.6258    -2.8878    15.6493 C       0      r0     0.0478
   2623 O            6.9634    -2.3910    13.3647 O       0      r0    -0.4670
   2624 H            7.3405    -4.4183    12.2551 H       0      r0     0.0780
   2625 C            8.5003    -2.3198    13.7057 C       0      r0     0.2003
   2626 H            9.0465    -3.3046    13.5308 H       0      r0     0.0174
   2627 C            9.8678    -5.1703    15.8143 C       5      r5     0.2899
   2628 C           11.0496    -5.0360    15.2305 C       5      r5    -0.0688
   2629 C           10.7267    -5.4618    11.5048 C       6      r6    -0.0216
   2630 H           11.0516    -5.7678    12.5468 H       0      r0     0.0192
   2631 C           11.7422    -4.0579    15.1742 C       5      r5     0.0497
   2632 C           12.5445    -5.8957    14.0992 C       5      r5    -0.0036
   2633 C           12.7702    -4.5942    14.3623 C       5      r5    -0.0118
   2634 C           12.9905    -3.7399    11.5296 C       0      r0    -0.0135
   2635 C           14.0639    -4.4222    12.2266 C       0      r0     0.0113
   2636 C           14.1945    -4.3893    13.7993 C       0      r0    -0.0370
   2637 H           14.7559    -3.4255    14.1421 H       0      r0     0.0293
   2638 H           14.8239    -5.3312    13.9108 H       0      r0     0.0569
   2639 C          -15.8523    -0.3337    13.4633 C       0      r0    -0.0015
   2640 C          -15.7998     1.8538    14.7799 C       0      r0    -0.0071
   2641 C          -15.1494     0.8714    13.9314 C       0      r0    -0.0066
   2642 C          -15.0180    -1.4470    13.8486 C       0      r0    -0.0033
   2643 C          -14.0826    -1.4391    15.0221 C       0      r0    -0.0032
   2644 C          -13.6756     1.1356    13.7315 C       0      r0     0.0052
   2645 C          -12.9166    -0.0448    13.2652 C       0      r0    -0.0234
   2646 H          -12.3549    -0.7282    13.9487 H       0      r0     0.0439
   2647 C          -12.0135    -0.0423    12.1430 C       0      r0    -0.0010
   2648 C          -11.6812     1.1196    11.3162 C       6      r6     0.0007
   2649 C          -11.4667    -1.3799    11.9077 C       0      r0     0.0023
   2650 C          -11.2006     1.9939    12.3344 C       6      r6    -0.0239
   2651 H          -10.9769     1.5951    13.2890 H       0      r0     0.0252
   2652 H          -10.7750     1.2692    15.5562 H       0      r0     0.0268
   2653 O          -10.0256    -2.1529    14.9854 O       0      r0    -0.5865
   2654 C           -8.8486    -1.8766    15.7945 C       5      r5     0.2787
   2655 H           -8.1126     1.6243    12.0982 H       0      r0     0.0196
   2656 C           -7.4314    -1.6772    12.7710 C       0      r0    -0.0105
   2657 H           -7.5673    -0.5426    13.0357 H       0      r0     0.0280
   2658 C           -7.1277     1.2171    11.7998 C       0      r0    -0.0252
   2659 H           -5.6342    -1.9437    10.8890 H       0      r0     0.0183
   2660 C           -5.6098     1.2917    12.0895 C       0      r0    -0.0149
   2661 C           -4.9928     0.8298    13.2779 C       0      r0    -0.0024
   2662 C           -4.0081     0.6686    15.5379 C       0      r0    -0.0035
   2663 C           -3.8676     1.0241    14.1377 C       0      r0    -0.0217
   2664 C           -3.5060    -1.0417    11.6710 C       6      r6    -0.0184
   2665 H           -3.3680    -1.9092    12.3166 H       0      r0     0.0196
   2666 C           -0.8232    -0.6037    15.4135 C       0      r0    -0.0255
   2667 H           -1.2343     0.0894   -15.7210 H       0      r0     0.0184
   2668 C           -0.5420    -0.4004    14.1624 C       0      r0     0.0140
   2669 C           -0.4040     0.1920    13.0471 C       0      r0    -0.0070
   2670 H            0.0489     1.0793    13.2670 H       0      r0     0.0335
   2671 H            0.3665    -1.9841    11.1659 H       0      r0    -0.0045
   2672 H            1.7417     1.2046    11.7808 H       0      r0     0.0470
   2673 C            1.8438     1.8346    15.3513 C       0      r0    -0.0271
   2674 C            2.0421     1.4793    13.9907 C       0      r0     0.0070
   2675 C            2.3781     1.0067    12.7913 C       0      r0    -0.0170
   2676 C            2.4638    -1.7313    15.6951 C       0      r0     0.0004
   2677 C            2.6085    -0.5099    15.8248 C       0      r0    -0.0087
   2678 C            2.8304     0.8039   -15.8855 C       0      r0    -0.0006
   2679 C            3.1818    -0.1378    12.8864 C       0      r0    -0.0148
   2680 H            3.0318    -0.6694    13.7647 H       0      r0     0.0384
   2681 C            3.3743    -1.1524    11.7762 C       0      r0     0.0066
   2682 C            5.5461     0.6960    11.6539 C       6      r6    -0.0108
   2683 C            5.6400     1.6473    12.8005 C       6      r6    -0.0292
   2684 C            6.0462    -0.6091    11.6879 C       6      r6    -0.0411
   2685 C            6.7132    -0.8974    12.8830 C       6      r6     0.2057
   2686 C            6.3885     1.2210    13.9346 C       6      r6    -0.0117
   2687 H            6.5534     2.0511    14.7865 H       0      r0     0.0108
   2688 C            6.8872    -0.0128    13.8865 C       6      r6    -0.0474
   2689 H            7.2918     0.1180    14.9635 H       0      r0     0.0349
   2690 H            8.6681    -2.1791    11.1490 H       0      r0     0.0242
   2691 C            9.0463    -1.4449    14.5905 C       0      r0    -0.0199
   2692 C            9.4810    -0.6027    15.4677 C       0      r0     0.0074
   2693 C            9.5396     1.5145    14.0107 C       0      r0    -0.0067
   2694 C            9.8599     0.8501    15.1685 C       0      r0    -0.0092
   2695 C           11.0906     1.1963   -15.8709 C       0      r0    -0.0034
   2696 H           11.6754    -1.4331    12.4426 H       0      r0     0.0169
   2697 C           14.2285    -0.6722    12.1868 C       0      r0    -0.0008
   2698 C           14.9951    -0.4432    13.0076 C       0      r0    -0.0105
   2699 C          -15.5969     6.1086    14.4483 C       0      r0    -0.0152
   2700 H          -15.7608     5.6992    15.6271 H       0      r0     0.0197
   2701 C          -14.8242     4.2734    12.4415 C       0      r0    -0.0277
   2702 C          -14.5045     3.4676    13.7149 C       0      r0    -0.0142
   2703 H          -14.5999     3.8633    14.7510 H       0      r0     0.0208
   2704 H          -14.9525     5.2366    12.3874 H       0      r0     0.0204
   2705 C          -13.3026     2.6082    13.5546 C       0      r0    -0.0147
   2706 H          -12.4870     3.3100    12.8391 H       0      r0     0.0221
   2707 C          -12.0033     5.6824    15.7470 C       5      r5     0.0003
   2708 C          -11.0711     6.0585    13.0765 C       7      r7    -0.0045
   2709 C          -10.3424     3.0301    11.9271 C       6      r6     0.0037
   2710 C          -10.1741     5.0785    13.7814 C       7      r7     0.0021
   2711 C           -9.7112     5.4674    15.0732 C       7      r7    -0.0046
   2712 C           -9.5895     3.8981    13.0107 C       0      r0    -0.0177
   2713 H           -8.9585     3.3965    13.7193 H       0      r0     0.0158
   2714 C           -8.4509     4.8136    12.3583 C       0      r0    -0.0187
   2715 H           -7.5458     4.8604    15.0194 H       0      r0     0.0186
   2716 H           -7.5847     4.3402    12.8822 H       0      r0     0.0122
   2717 H           -6.0151     4.1120    14.8533 H       0      r0     0.0156
   2718 H           -5.6095     5.7083    14.8225 H       0      r0     0.0176
   2719 C           -5.0537     4.8369    14.7646 C       0      r0    -0.0515
   2720 H           -4.8377     2.2128    12.0412 H       0      r0     0.0173
   2721 H           -4.5720     4.9911    15.7372 H       0      r0     0.0238
   2722 C           -3.7823     4.0149    14.3350 C       5      r5    -0.0011
   2723 C           -3.7483     6.1429    12.4332 C       5      r5     0.0301
   2724 H           -3.1786     1.8132    13.6860 H       0      r0     0.0228
   2725 C           -3.3506     4.7183    11.8736 C       5      r5    -0.0066
   2726 C           -3.1506     4.0388    13.1720 C       5      r5     0.0141
   2727 C           -2.9159     3.7630    15.4664 C       5      r5     0.0004
   2728 H           -2.6103     4.1239    11.3111 H       0      r0     0.0893
   2729 C           -1.8765     3.3070    13.4819 C       5      r5    -0.0076
   2730 C           -1.6285     3.4679    14.8903 C       5      r5    -0.0093
   2731 H           -1.0575     3.1112    12.6397 H       0      r0     0.1127
   2732 H           -0.8466     2.8145    15.1913 H       0      r0     0.0163
   2733 O           -0.5054     5.7820    12.0834 O       0      r0    -0.4401
   2734 C           -0.2500     6.1774    15.0660 C       0      r0     0.0426
   2735 C            2.6821     5.8879   -15.8681 C       0      r0    -0.0252
   2736 H            3.8807     3.3282    13.5447 H       0      r0     0.0267
   2737 H            3.7218     6.3673   -15.6508 H       0      r0     0.0167
   2738 H            3.9123     1.8443    12.3714 H       0      r0     0.0250
   2739 H            4.9076     3.2235    15.2468 H       0      r0     0.0158
   2740 C            4.3743     3.7820    14.4074 C       0      r0    -0.0412
   2741 H            5.5822     2.6493    12.6482 H       0      r0     0.0191
   2742 C            5.2790     4.8431    14.3357 C       0      r0     0.0050
   2743 C            5.8561     5.6264    12.1267 C       0      r0    -0.0098
   2744 C            6.2128     5.7203    13.3710 C       0      r0    -0.0087
   2745 H            6.1158     3.7189   -15.6239 H       0      r0     0.0124
   2746 C            6.2998     4.4600    15.3073 C       0      r0    -0.0283
   2747 C            7.7535     5.8836    13.4509 C       6      r6     0.0056
   2748 H            7.6142     3.8047    13.2404 H       0      r0     0.0198
   2749 C            8.2837     4.6235    13.1856 C       6      r6    -0.0221
   2750 C            9.4720     3.3126    12.1368 C       0      r0    -0.0215
   2751 C            9.4359     2.0592    12.8511 C       0      r0    -0.0069
   2752 C            9.3927     4.6400    12.6081 C       6      r6     0.0069
   2753 C           10.1471     5.8323    12.0862 C       6      r6     0.0124
   2754 C           11.6142     2.4381    15.6402 C       0      r0    -0.0014
   2755 C           11.9601     3.5467    15.4252 C       0      r0     0.0023
   2756 H           12.5063     5.0842    12.1902 H       0      r0     0.0707
   2757 C           12.3639     4.9969    15.6745 C       0      r0     0.0174
   2758 H           12.7198     2.1463    11.7588 H       0      r0     0.0170
   2759 C           12.8846     4.5269    11.3753 C       7      r7    -0.0284
   2760 C           13.6093     5.7638    15.4082 C       7      r7     0.0517
   2761 H           13.9021     4.3858    11.7795 H       0      r0     0.0237
   2762 C           14.5482     3.3453    15.6512 C       7      r7    -0.0026
   2763 C           14.6088     4.7219    15.0021 C       7      r7    -0.0052
   2764 H           15.5053     5.2041    12.8552 H       0      r0     0.0249
   2765 C           15.5681     5.2271    13.9080 C       0      r0    -0.0040
   2766 C           15.6942     2.5349    15.4261 C       0      r0    -0.0047
   2767 C          -15.9313     9.1367    12.7094 C       0      r0    -0.0012
   2768 H          -15.8388     7.0803    11.8584 H       0      r0     0.0261
   2769 C          -15.2756     7.8216    12.4082 C       0      r0    -0.0154
   2770 C          -15.0049     7.3885    13.9512 C       0      r0     0.0041
   2771 C          -13.8083     8.1741    14.1570 C       5      r5    -0.0009
   2772 C          -13.4120     8.0299    15.6405 C       5      r5    -0.0014
   2773 C          -12.5621     8.1237    13.3032 C       5      r5    -0.0221
   2774 H          -12.6764     7.8603    12.3064 H       0      r0     0.0226
   2775 C          -11.8935     7.1069    15.5235 C       5      r5    -0.0187
   2776 C          -11.8242     7.0547    13.9762 C       5      r5     0.0050
   2777 H          -10.9750     9.3885    14.8323 H       0      r0     0.0198
   2778 C          -11.0431    10.3007    14.2958 C       0      r0    -0.0200
   2779 C          -10.7931     6.2921    11.6880 C       0      r0     0.0058
   2780 C          -10.8517     9.0585    12.2409 C       0      r0     0.0006
   2781 C           -8.2457     9.8810    11.5260 C       0      r0     0.0008
   2782 C           -8.4544     6.1479    12.2782 C       0      r0     0.0021
   2783 C           -8.2179     7.6500    12.5147 C       0      r0    -0.0144
   2784 H           -8.3032     8.2735    13.4957 H       0      r0     0.0187
   2785 H           -5.8654     9.8753    13.5449 H       0      r0     0.0213
   2786 H           -6.1450     7.2793    15.1297 H       0      r0     0.0146
   2787 C           -5.4607     8.8607    13.5000 C       0      r0    -0.0219
   2788 C           -5.4571     7.8861    14.7553 C       0      r0    -0.0193
   2789 C           -4.7035     8.3110    12.4193 C       0      r0     0.0026
   2790 C           -4.6581     9.5404    11.7937 C       0      r0    -0.0016
   2791 C           -4.5335     6.9872    11.6521 C       5      r5    -0.0077
   2792 C           -4.0793     8.0799    15.0053 C       0      r0    -0.0169
   2793 H           -3.3417     8.6623    14.4715 H       0      r0     0.0263
   2794 C           -1.9956     7.6229    15.6463 C       0      r0     0.0143
   2795 C           -1.3696     6.1661    15.8685 C       0      r0    -0.0227
   2796 C           -1.1589    10.3047    14.6491 C       0      r0    -0.0076
   2797 C           -1.1342     8.5987    15.0512 C       0      r0    -0.0131
   2798 H            0.0283     8.6508    14.8966 H       0      r0     0.0182
   2799 C            0.4564     6.5590    12.5985 C       0      r0     0.3012
   2800 C            0.6993     6.5140    14.1293 C       0      r0    -0.0520
   2801 C            1.2697     7.5785    12.0022 C       0      r0    -0.0627
   2802 C            1.8992     6.3879    14.8855 C       0      r0     0.0074
   2803 C            2.5128     9.9386    11.9967 C       7      r7    -0.0088
   2804 H            4.5810     8.5898    13.6774 H       0      r0     0.0192
   2805 C            5.0547     9.4198    13.9951 C       0      r0    -0.0290
   2806 C            6.3648     9.6791    14.6846 C       0      r0    -0.0260
   2807 H            7.3168     7.5077    11.4113 H       0      r0     0.0188
   2808 C            7.5484    10.2472    14.3331 C       0      r0     0.0249
   2809 H            8.4267     7.9093    14.3834 H       0      r0     0.0236
   2810 C            8.5890     7.1307    13.6138 C       6      r6    -0.0247
   2811 C            8.8153     9.3331    11.5647 C       0      r0    -0.0059
   2812 C            9.6930     7.1057    12.7256 C       6      r6     0.0296
   2813 C            9.8860     8.4862    12.0713 C       0      r0     0.0204
   2814 C           11.1724     9.0632    12.0940 C       0      r0    -0.0573
   2815 H           11.3518    10.2146    12.1939 H       0      r0     0.0203
   2816 C           12.4346     8.4392    12.6623 C       0      r0     0.3253
   2817 O           12.5978     7.3248    13.3195 O       0      r0    -0.4867
   2818 C           13.4320     9.6820    12.8490 C       0      r0    -0.0431
   2819 C           14.8638     9.3784    13.2463 C       0      r0     0.0287
   2820 C          -15.7237    14.2227    12.7094 C       0      r0    -0.0261
   2821 H          -16.0667    13.5623    13.3998 H       0      r0     0.0228
   2822 H          -15.4579    11.7281    12.4604 H       0      r0     0.0175
   2823 C          -15.1362    12.2228    11.4654 C       0      r0    -0.0125
   2824 H          -13.8339    13.9965    11.4614 H       0      r0     0.0202
   2825 H          -12.9538    12.7549    13.8520 H       0      r0     0.0194
   2826 H          -12.2456    10.6431    11.8691 H       0      r0     0.0231
   2827 C          -12.3033    13.5745    15.7595 C       6      r6     0.0053
   2828 C          -12.0344    12.8543    14.5970 C       6      r6    -0.0155
   2829 C          -11.1219    11.5632    15.0077 C       6      r6     0.0002
   2830 C          -11.0661    13.6770    12.6263 C       0      r0    -0.0113
   2831 C          -11.0286    13.7112    14.0338 C       0      r0    -0.0001
   2832 H          -10.7222    11.3638    12.7399 H       0      r0     0.0224
   2833 C          -10.8704    10.1994    12.9561 C       0      r0    -0.0150
   2834 C          -10.6699    13.9181    11.4478 C       0      r0    -0.0076
   2835 C          -10.2178    11.9653   -15.7892 C       6      r6    -0.0214
   2836 H           -9.1428    13.3451    13.9596 H       0      r0     0.0234
   2837 C           -8.0940    13.5401    15.6284 C       0      r0     0.0055
   2838 C           -7.9676    13.5961    14.1742 C       0      r0    -0.0216
   2839 C           -7.9864    11.2311    12.0664 C       0      r0    -0.0002
   2840 C           -7.0940    14.3532    13.6219 C       0      r0     0.0028
   2841 H           -6.6643    12.4973    12.1799 H       0      r0     0.0240
   2842 C           -6.4923    11.5159    12.5433 C       0      r0    -0.0342
   2843 H           -6.1985    11.7462    13.6271 H       0      r0     0.0179
   2844 C           -5.5247    10.6694    11.5090 C       0      r0     0.0036
   2845 C           -3.9373    12.0657    11.3756 C       6      r6    -0.0015
   2846 H           -2.8243    13.4760    15.6960 H       0      r0     0.0173
   2847 C           -3.1485    12.5443    12.3564 C       0      r0    -0.0093
   2848 C           -2.1120    12.6088    13.2652 C       0      r0    -0.0033
   2849 H           -0.5886    13.5938    14.6222 H       0      r0     0.0161
   2850 C           -0.9490    12.7524    14.0116 C       0      r0    -0.0238
   2851 C           -0.3354    11.3758    14.2871 C       0      r0    -0.0005
   2852 C            0.3192    11.2191    11.4516 C       7      r7    -0.0187
   2853 C            1.0767    10.9542    14.0196 C       0      r0    -0.0151
   2854 C            1.2077    10.5518    12.4385 C       7      r7     0.0014
   2855 H            0.8758    12.9028    14.8539 H       0      r0     0.0239
   2856 H            1.4854     9.8138    14.1940 H       0      r0     0.0161
   2857 H            2.2116    12.0297    15.8055 H       0      r0     0.0211
   2858 C            1.7507    12.2922    14.7577 C       0      r0    -0.0213
   2859 C            2.7532    14.0131    13.5870 C       5      r5     0.0108
   2860 C            3.2020    12.8857    14.3184 C       5      r5    -0.0602
   2861 C            3.5415    13.6077    15.6696 C       5      r5     0.2229
   2862 C            4.4015    14.2590    12.0033 C       0      r0    -0.0160
   2863 C            4.3757    12.0726    14.2954 C       5      r5     0.0288
   2864 C            4.4620    10.6854    14.0859 C       0      r0     0.0061
   2865 H            4.8035    13.2845    12.2930 H       0      r0     0.0186
   2866 C            4.8193    13.9549    15.0110 C       5      r5     0.0083
   2867 C            5.3151    13.0331    14.1676 C       5      r5     0.0255
   2868 H            6.3231    12.6843    13.7119 H       0      r0     0.0313
   2869 H            5.8551    10.2055    15.4397 H       0      r0     0.0857
   2870 H            7.9868    13.9379    13.9135 H       0      r0     0.0129
   2871 C            8.2867    13.6472    15.0613 C       0      r0     0.0055
   2872 C            8.7721    12.3023    14.8418 C       0      r0     0.0123
   2873 C            8.8249    10.9014    14.3243 C       0      r0    -0.0245
   2874 H            9.8141    12.1872    13.0820 H       0      r0     0.0191
   2875 C            9.9435    13.0569    12.3250 C       0      r0    -0.0409
   2876 H            9.6177    10.2518    13.8438 H       0      r0     0.0188
   2877 H           11.1205    10.9929   -15.6706 H       0      r0     0.0211
   2878 C           11.1029    13.3089    11.9419 C       0      r0     0.0035
   2879 C           12.4226    13.6107    11.4913 C       5      r5    -0.0060
   2880 C           12.4325    12.8459    15.3167 C       0      r0     0.0005
   2881 C           12.6433    13.3963    13.9544 C       0      r0    -0.0048
   2882 C           13.4266    10.9976    13.5087 C       0      r0     0.0045
   2883 C           13.4843    12.3431    13.2759 C       0      r0    -0.0080
   2884 C           13.3924    12.6054    11.7837 C       5      r5     0.0029
   2885 C           16.0163    13.3463    11.4227 C       0      r0     0.0009
   2886 B           16.0688   -14.3562    15.8989 B       8     BOX     0.0000
   2887 B          -16.0688   -14.3562    15.8989 B       8     BOX     0.0000
   2888 B          -16.0688    14.3562    15.8989 B       8     BOX     0.0000
   2889 B           16.0688    14.3562    15.8989 B       8     BOX     0.0000
   2890 B           16.0688   -14.3562   -15.8989 B       8     BOX     0.0000
   2891 B          -16.0688   -14.3562   -15.8989 B       8     BOX     0.0000
   2892 B          -16.0688    14.3562   -15.8989 B       8     BOX     0.0000
   2893 B           16.0688    14.3562   -15.8989 B       8     BOX     0.0000
@<TRIPOS>BOND
     1      1      4      1
     2      1      5      1
     3      2      3      1
     4      2      4      1
     5      3      7      1
     6      4      6      1
     7      5     63      1
     8      5    411      1
     9      6      8      1
    10      8    411      1
    11      8    413      1
    12      9     11      1
    13     10     12      1
    14     12     66      1
    15     14     15      1
    16     14     16      1
    17     14     69      1
    18     14     72      1
    19     15     18      1
    20     17     18      1
    21     18     20      1
    22     19     21      1
    23     20     21      1
    24     21     23      1
    25     22    430      1
    26     22    432      1
    27     23     26      1
    28     24     26      1
    29     25     28      1
    30     25     82      1
    31     26     27      1
    32     27     29      1
    33     27     30      1
    34     28     30      1
    35     28     87      1
    36     30     31      1
    37     32     33      1
    38     32     91      1
    39     33     36      1
    40     33    436      1
    41     34     37      1
    42     35     38      1
    43     36     41      1
    44     36    441      1
    45     37     38      1
    46     38     39      1
    47     39     40      1
    48     39     44      1
    49     39     93      1
    50     41     42      1
    51     41     43      1
    52     43     94      1
    53     45     97      1
    54     46     49      1
    55     47     94      1
    56     47    100      1
    57     47    452      1
    58     48     49      1
    59     49     51      1
    60     50    399      1
    61     50    802      1
    62     51     52      1
    63     51     53      1
    64     52     55      1
    65     54     55      1
    66     54    454      1
    67     54    460      1
    68     55     56      1
    69     56     57      1
    70     57     58      1
    71     57    462      1
    72     58    110      1
    73     59     62      1
    74     59    465      1
    75     60     63      1
    76     63    467      1
    77     64     65      1
    78     64    117      1
    79     64    118      1
    80     65     67      1
    81     67     68      1
    82     67    125      1
    83     70    131      1
    84     71     72      1
    85     71     73      1
    86     73     74      1
    87     73    131      1
    88     74     76      1
    89     74    139      1
    90     75    489      1
    91     76     80      1
    92     76    138      1
    93     77     79      1
    94     78    491      1
    95     79     80      1
    96     79     82      1
    97     80     81      1
    98     81     83      1
    99     82     83      1
   100     83     86      1
   101     84     85      1
   102     85    496      1
   103     85    499      1
   104     86     87      1
   105     86     88      1
   106     87     89      1
   107     88    146      1
   108     90     91      1
   109     91    503      1
   110     92    148      1
   111     94    508      1
   112     95     96      1
   113     95     98      1
   114     95    158      1
   115     96     99      1
   116     97     99      1
   117     99    102      1
   118    100    101      1
   119    100    516      1
   120    103    104      1
   121    104    105      1
   122    104    516      1
   123    105    107      1
   124    106    109      1
   125    107    110      1
   126    108    171      1
   127    109    110      1
   128    111    112      1
   129    112    113      1
   130    113    119      1
   131    113    178      1
   132    115    118      1
   133    115    120      1
   134    115    468      1
   135    116    121      1
   136    119    121      1
   137    119    123      1
   138    120    124      1
   139    120    530      1
   140    121    122      1
   141    123    126      1
   142    123    181      1
   143    124    125      1
   144    124    478      1
   145    125    128      1
   146    126    127      1
   147    126    128      1
   148    127    537      1
   149    127    596      1
   150    128    130      1
   151    129   2604      1
   152    129   2654      1
   153    130    131      1
   154    130    133      1
   155    132    133      1
   156    132    188      1
   157    132    192      1
   158    133    134      1
   159    133    135      1
   160    135    136      1
   161    135    196      1
   162    136    139      1
   163    136    547      1
   164    137    139      1
   165    137    491      1
   166    137    546      1
   167    140    141      1
   168    140    547      1
   169    140    607      1
   170    142    143      1
   171    142    202      1
   172    143    144      1
   173    143   2612      1
   174    144    145      1
   175    145    558      1
   176    147    148      1
   177    147    558      1
   178    148    151      1
   179    150    154      1
   180    150    210      1
   181    151    152      1
   182    151    153      1
   183    152    153      1
   184    153    156      1
   185    155    156      1
   186    155    567      1
   187    156    157      1
   188    157    214      1
   189    157    216      1
   190    159    160      1
   191    161    163      1
   192    162    164      1
   193    163    165      1
   194    163    166      1
   195    164    165      1
   196    164    167      1
   197    165    168      1
   198    166    575      1
   199    168    169      1
   200    168    170      1
   201    169    171      1
   202    169    173      1
   203    170    172      1
   204    170    577      1
   205    171    172      1
   206    174    175      1
   207    174    583      1
   208    176    177      1
   209    177    179      1
   210    179    180      1
   211    180    182      1
   212    181    182      1
   213    181    183      1
   214    182    185      1
   215    183    593      1
   216    183    596      1
   217    184    185      1
   218    185    186      1
   219    185    187      1
   220    186    188      1
   221    188    190      1
   222    189    190      1
   223    190    191      1
   224    190    194      1
   225    191    193      1
   226    191    195      1
   227    192    193      1
   228    194    196      1
   229    194    197      1
   230    197    198      1
   231    197    200      1
   232    198    252      1
   233    198    606      1
   234    199    257      1
   235    201    257      1
   236    203    204      1
   237    204    205      1
   238    204    206      1
   239    205    556      1
   240    206    207      1
   241    206    617      1
   242    207    208      1
   243    207    269      1
   244    208    209      1
   245    208    273      1
   246    208   2678      1
   247    209    210      1
   248    211    212      1
   249    212    213      1
   250    212    627      1
   251    214    215      1
   252    216    217      1
   253    217    218      1
   254    217    572      1
   255    218    635      1
   256    219    220      1
   257    219   2695      1
   258    220    221      1
   259    220    222      1
   260    223    226      1
   261    224    225      1
   262    224    293      1
   263    225    226      1
   264    225    641      1
   265    225    646      1
   266    226    643      1
   267    227    228      1
   268    227    229      1
   269    227    647      1
   270    228    230      1
   271    228    298      1
   272    229    232      1
   273    229    586      1
   274    230    231      1
   275    231    233      1
   276    233    236      1
   277    234    235      1
   278    235    655      1
   279    235    710      1
   280    236    240      1
   281    237    239      1
   282    237    593      1
   283    238   2707      1
   284    238   2711      1
   285    240    241      1
   286    241    244      1
   287    242    245      1
   288    242    658      1
   289    243   2711      1
   290    244    246      1
   291    245    249      1
   292    246    248      1
   293    246    249      1
   294    247    249      1
   295    247    660      1
   296    248    250      1
   297    249    251      1
   298    253    254      1
   299    254    255      1
   300    254    256      1
   301    255    257      1
   302    256    312      1
   303    256    314      1
   304    259    262      1
   305    260    262      1
   306    261    262      1
   307    262    264      1
   308    263    264      1
   309    263   2735      1
   310    264    267      1
   311    265   2673      1
   312    266    267      1
   313    267    268      1
   314    267    271      1
   315    269    270      1
   316    269    271      1
   317    270    680      1
   318    270    681      1
   319    271    272      1
   320    271    274      1
   321    274    275      1
   322    275    329      1
   323    276   2746      1
   324    277    279      1
   325    278    281      1
   326    278    334      1
   327    278    685      1
   328    279    280      1
   329    279    281      1
   330    280    284      1
   331    281    283      1
   332    283    286      1
   333    283    689      1
   334    284    285      1
   335    285    339      1
   336    286    288      1
   337    286    636      1
   338    287    288      1
   339    287    341      1
   340    287    690      1
   341    288    289      1
   342    289    291      1
   343    289    697      1
   344    290    291      1
   345    290    292      1
   346    290    294      1
   347    291    295      1
   348    292    293      1
   349    294    345      1
   350    294    348      1
   351    295    752      1
   352    296    299      1
   353    297    348      1
   354    297    752      1
   355    299    300      1
   356    299    302      1
   357    301    302      1
   358    301    705      1
   359    304    710      1
   360    305    306      1
   361    306    307      1
   362    306    308      1
   363    308    309      1
   364    308    310      1
   365    309    368      1
   366    309    370      1
   367    311    312      1
   368    312    313      1
   369    315    379      1
   370    316    317      1
   371    317    726      1
   372    318    320      1
   373    319    383      1
   374    319    727      1
   375    319    783      1
   376    320    322      1
   377    320    383      1
   378    321    322      1
   379    322    323      1
   380    323    325      1
   381    323    387      1
   382    324    326      1
   383    325    326      1
   384    325    327      1
   385    326    328      1
   386    327    330      1
   387    328    329      1
   388    328    332      1
   389    329    334      1
   390    330    333      1
   391    331    332      1
   392    332    738      1
   393    332    742      1
   394    333    336      1
   395    334    335      1
   396    334    743      1
   397    337    338      1
   398    337    398      1
   399    338    340      1
   400    340    341      1
   401    341    343      1
   402    344    345      1
   403    344    347      1
   404    346    347      1
   405    346    405      1
   406    349    351      1
   407    349    352      1
   408    350    351      1
   409    351    353      1
   410    352    354      1
   411    353    356      1
   412    355    356      1
   413    356    358      1
   414    358    360      1
   415    359    361      1
   416    360    362      1
   417    360    363      1
   418    361    367      1
   419    361   2835      1
   420    363    368      1
   421    363    765      1
   422    364    365      1
   423    364    764      1
   424    366   2835      1
   425    368    769      1
   426    369    371      1
   427    370    374      1
   428    371    372      1
   429    372    373      1
   430    372    374      1
   431    373    774      1
   432    374    375      1
   433    375    377      1
   434    375    719      1
   435    376    378      1
   436    377    380      1
   437    378    379      1
   438    380    779      1
   439    381   2796      1
   440    383    384      1
   441    384    782      1
   442    385    387      1
   443    387    388      1
   444    388    389      1
   445    389    795      1
   446    390    392      1
   447    391    392      1
   448    392    393      1
   449    394    396      1
   450    395    398      1
   451    396    399      1
   452    397    398      1
   453    397    800      1
   454    397    804      1
   455    400    401      1
   456    400   2877      1
   457    401    402      1
   458    402    403      1
   459    402    405      1
   460    403    810      1
   461    406   2880      1
   462    409    410      1
   463    410    815      1
   464    411    412      1
   465    412    414      1
   466    412    470      1
   467    414    418      1
   468    415    417      1
   469    415    475      1
   470    415    823      1
   471    416    417      1
   472    417    419      1
   473    418    421      1
   474    420    422      1
   475    421    423      1
   476    421    480      1
   477    421    481      1
   478    422    423      1
   479    423    426      1
   480    424    427      1
   481    424    428      1
   482    425    835      1
   483    426    429      1
   484    426    485      1
   485    428    429      1
   486    429    430      1
   487    430    432      1
   488    431    492      1
   489    432    433      1
   490    433    496      1
   491    434    435      1
   492    435    437      1
   493    437    438      1
   494    437    440      1
   495    438    504      1
   496    439    441      1
   497    440    441      1
   498    440    443      1
   499    443    444      1
   500    443    445      1
   501    446    508      1
   502    447    451      1
   503    448    858      1
   504    449    451      1
   505    449    512      1
   506    450    802      1
   507    451    452      1
   508    452    453      1
   509    453    454      1
   510    453    455      1
   511    455    456      1
   512    455    518      1
   513    456    457      1
   514    456    458      1
   515    457    459      1
   516    458    517      1
   517    458    865      1
   518    460    461      1
   519    460    462      1
   520    462    463      1
   521    464    932      1
   522    465    468      1
   523    466    467      1
   524    467    470      1
   525    468    469      1
   526    470    471      1
   527    472    474      1
   528    472    881      1
   529    472    884      1
   530    473    474      1
   531    474    477      1
   532    475    479      1
   533    475    884      1
   534    476    477      1
   535    476    478      1
   536    477    479      1
   537    479    480      1
   538    480    482      1
   539    480    483      1
   540    484    488      1
   541    485    486      1
   542    485    489      1
   543    487    490      1
   544    488    489      1
   545    488    491      1
   546    490    492      1
   547    490    493      1
   548    492    895      1
   549    493    551      1
   550    493    894      1
   551    494    550      1
   552    495    496      1
   553    497    498      1
   554    497    900      1
   555    498    501      1
   556    498    901      1
   557    499    500      1
   558    500    555      1
   559    501    502      1
   560    501    504      1
   561    502    503      1
   562    504    909      1
   563    505    506      1
   564    505    912      1
   565    505    916      1
   566    506    507      1
   567    506    511      1
   568    507    508      1
   569    507    510      1
   570    509    511      1
   571    511    513      1
   572    512    514      1
   573    512    918      1
   574    513    515      1
   575    513    568      1
   576    516    518      1
   577    517    519      1
   578    517    925      1
   579    518    519      1
   580    519    520      1
   581    521    523      1
   582    522    524      1
   583    523    524      1
   584    523    579      1
   585    525    579      1
   586    526    528      1
   587    527    529      1
   588    528    530      1
   589    528    531      1
   590    529    531      1
   591    529    937      1
   592    531    532      1
   593    533    535      1
   594    533    595      1
   595    534    535      1
   596    534    536      1
   597    534    944      1
   598    535    538      1
   599    537    538      1
   600    537    540      1
   601    537    599      1
   602    538    543      1
   603    539    542      1
   604    541    543      1
   605    541    599      1
   606    541    602      1
   607    542    544      1
   608    543    544      1
   609    544    548      1
   610    544    948      1
   611    545    547      1
   612    546    549      1
   613    546    550      1
   614    547    549      1
   615    548    551      1
   616    548    552      1
   617    549    552      1
   618    550    551      1
   619    552    553      1
   620    553    554      1
   621    553    608      1
   622    554    955      1
   623    555    557      1
   624    555    558      1
   625    556    558      1
   626    556    560      1
   627    559    561      1
   628    561    563      1
   629    561    965      1
   630    562    564      1
   631    563    564      1
   632    563    969      1
   633    564    565      1
   634    565    566      1
   635    565    567      1
   636    566    630      1
   637    567    626      1
   638    568    569      1
   639    569    570      1
   640    570    571      1
   641    570    978      1
   642    571    572      1
   643    571    633      1
   644    572    573      1
   645    572    637      1
   646    574    575      1
   647    574    576      1
   648    574    637      1
   649    575    577      1
   650    576    642      1
   651    577    579      1
   652    578    579      1
   653    580    586      1
   654    581    584      1
   655    582    584      1
   656    582    933      1
   657    583    588      1
   658    584    587      1
   659    585    992      1
   660    586    588      1
   661    587    589      1
   662    587    992      1
   663    590    994      1
   664    591    594      1
   665    592    656      1
   666    593    597      1
   667    594    595      1
   668    594   1000      1
   669    596    598      1
   670    597    598      1
   671    597    659      1
   672    598    600      1
   673    599    600      1
   674    600    601      1
   675    603    604      1
   676    604    605      1
   677    604    608      1
   678    605    609      1
   679    606    670      1
   680    607    608      1
   681    609    610      1
   682    609    667      1
   683    611    612      1
   684    611    670      1
   685    612    615      1
   686    613    614      1
   687    613    955      1
   688    613   1017      1
   689    614    616      1
   690    615    616      1
   691    615    617      1
   692    616    618      1
   693    617    680      1
   694    618    620      1
   695    618    622      1
   696    619    620      1
   697    620   1020      1
   698    621    622      1
   699    622    625      1
   700    623    624      1
   701    624    628      1
   702    624   1086      1
   703    625    626      1
   704    625    629      1
   705    626    627      1
   706    628    629      1
   707    628   1024      1
   708    629    630      1
   709    630   1026      1
   710    631    689      1
   711    632    633      1
   712    633    634      1
   713    635    636      1
   714    635    638      1
   715    636    697      1
   716    637    638      1
   717    638    640      1
   718    639    640      1
   719    639    693      1
   720    639   1037      1
   721    640    644      1
   722    642    644      1
   723    642   1042      1
   724    644    645      1
   725    648    650      1
   726    649    650      1
   727    650    651      1
   728    650   1048      1
   729    651    652      1
   730    651    653      1
   731    652    654      1
   732    654    655      1
   733    655    658      1
   734    656    657      1
   735    656    659      1
   736    658    660      1
   737    659    660      1
   738    661    662      1
   739    661    714      1
   740    661    715      1
   741    663    665      1
   742    664    665      1
   743    665    718      1
   744    666    667      1
   745    667   1071      1
   746    668    724      1
   747    668   1073      1
   748    669    670      1
   749    671    674      1
   750    672    725      1
   751    673    674      1
   752    674    675      1
   753    674    676      1
   754    675    725      1
   755    675    728      1
   756    676    677      1
   757    676    678      1
   758    677    679      1
   759    678    680      1
   760    679   1083      1
   761    681    682      1
   762    682    683      1
   763    682    735      1
   764    683    684      1
   765    683    685      1
   766    684    741      1
   767    685    687      1
   768    686    687      1
   769    687    689      1
   770    688    741      1
   771    690    694      1
   772    690    745      1
   773    691    693      1
   774    691    695      1
   775    691   1101      1
   776    692    694      1
   777    692    695      1
   778    692    749      1
   779    693    698      1
   780    694    696      1
   781    694    750      1
   782    695    699      1
   783    697    698      1
   784    698    700      1
   785    699    700      1
   786    699    701      1
   787    700    702      1
   788    703   1110      1
   789    704    705      1
   790    704    757      1
   791    705    706      1
   792    706    707      1
   793    706    709      1
   794    707    708      1
   795    708    711      1
   796    708   1112      1
   797    709    710      1
   798    709    712      1
   799    711    712      1
   800    711    714      1
   801    712    713      1
   802    714   1058      1
   803    714   1119      1
   804    715    717      1
   805    716    717      1
   806    717    718      1
   807    718    720      1
   808    720    721      1
   809    720    722      1
   810    722    723      1
   811    722    724      1
   812    723   1129      1
   813    724   1128      1
   814    725    726      1
   815    726    727      1
   816    727    729      1
   817    728    729      1
   818    728    730      1
   819    729    732      1
   820    731    732      1
   821    732    733      1
   822    733    734      1
   823    734    736      1
   824    734    793      1
   825    737   1142      1
   826    739    801      1
   827    739   1146      1
   828    739   1217      1
   829    740    741      1
   830    740   1146      1
   831    742    743      1
   832    742    744      1
   833    743    745      1
   834    744    746      1
   835    744    804      1
   836    745    746      1
   837    746    747      1
   838    748    749      1
   839    749   1156      1
   840    751    753      1
   841    751   1157      1
   842    754    755      1
   843    755    756      1
   844    755    757      1
   845    758    760      1
   846    759    760      1
   847    760    761      1
   848    760    762      1
   849    762    764      1
   850    762    765      1
   851    765    767      1
   852    766    768      1
   853    766   1176      1
   854    767    768      1
   855    767    769      1
   856    768    771      1
   857    769    772      1
   858    771    772      1
   859    771    773      1
   860    774    775      1
   861    775    776      1
   862    776    777      1
   863    776    779      1
   864    777    778      1
   865    778    841      1
   866    778   1189      1
   867    779    780      1
   868    781   1200      1
   869    782    783      1
   870    782    786      1
   871    783    785      1
   872    784    787      1
   873    784   1200      1
   874    787    788      1
   875    788    790      1
   876    789    791      1
   877    791    792      1
   878    791    793      1
   879    793    795      1
   880    795    796      1
   881    796    798      1
   882    796    800      1
   883    797    799      1
   884    797   1214      1
   885    798    799      1
   886    799   1217      1
   887    800    802      1
   888    803    805      1
   889    804    807      1
   890    805    806      1
   891    805    808      1
   892    807    808      1
   893    807    810      1
   894    808    809      1
   895    810    811      1
   896    812   1222      1
   897    813    816      1
   898    814    815      1
   899    817    879      1
   900    818    820      1
   901    819    821      1
   902    820    822      1
   903    820    880      1
   904    820    882      1
   905    821    823      1
   906    822    823      1
   907    822    884      1
   908    824    825      1
   909    825    827      1
   910    826    830      1
   911    827    830      1
   912    827    831      1
   913    828    885      1
   914    829    830      1
   915    830    832      1
   916    831    833      1
   917    831   1255      1
   918    832    833      1
   919    832    835      1
   920    833    834      1
   921    835    836      1
   922    835    890      1
   923    837    838      1
   924    838    839      1
   925    838    840      1
   926    839   1261      1
   927    840    896      1
   928    840   1262      1
   929    842    843      1
   930    842   1266      1
   931    843    844      1
   932    843    846      1
   933    844    845      1
   934    845    903      1
   935    845   1325      1
   936    846    848      1
   937    847    849      1
   938    848    849      1
   939    849    852      1
   940    850    851      1
   941    850    909      1
   942    850    916      1
   943    852    853      1
   944    852    854      1
   945    853    856      1
   946    853    911      1
   947    853   1275      1
   948    854    857      1
   949    855    918      1
   950    856    919      1
   951    856   1280      1
   952    857   1280      1
   953    858    860      1
   954    859   1215      1
   955    862    864      1
   956    863    865      1
   957    864    866      1
   958    864    867      1
   959    865    867      1
   960    865    926      1
   961    866   1288      1
   962    866   1636      1
   963    867    869      1
   964    868    928      1
   965    869    870      1
   966    869    871      1
   967    872   1292      1
   968    873    875      1
   969    874    876      1
   970    875    877      1
   971    875    878      1
   972    875    935      1
   973    876    880      1
   974    876    932      1
   975    878    881      1
   976    879    882      1
   977    879   1299      1
   978    880    881      1
   979    882    883      1
   980    883   1301      1
   981    885    886      1
   982    885   1308      1
   983    886    887      1
   984    886   1310      1
   985    887    888      1
   986    887    889      1
   987    888   1311      1
   988    888   1317      1
   989    889    890      1
   990    890    892      1
   991    891    893      1
   992    891   1317      1
   993    892    893      1
   994    892    895      1
   995    893    894      1
   996    894    953      1
   997    895    897      1
   998    898    899      1
   999    898    900      1
  1000    898    953      1
  1001    902    903      1
  1002    903    904      1
  1003    903    907      1
  1004    904    905      1
  1005    904    906      1
  1006    906    963      1
  1007    907    908      1
  1008    907    909      1
  1009    910    912      1
  1010    911   1329      1
  1011    912    913      1
  1012    913    914      1
  1013    913    915      1
  1014    915    917      1
  1015    915    970      1
  1016    916    918      1
  1017    918    920      1
  1018    919    921      1
  1019    921    922      1
  1020    922    923      1
  1021    922   1342      1
  1022    923    924      1
  1023    923    975      1
  1024    925    926      1
  1025    925    927      1
  1026    926    928      1
  1027    928    929      1
  1028    929    930      1
  1029    930    985      1
  1030    933    934      1
  1031    934    936      1
  1032    935    936      1
  1033    936    937      1
  1034    937    940      1
  1035    938   1365      1
  1036    939    940      1
  1037    940    941      1
  1038    941    944      1
  1039    942    943      1
  1040    942   1369      1
  1041    942   1371      1
  1042    944    945      1
  1043    946    947      1
  1044    947    949      1
  1045    947   1003      1
  1046    949    950      1
  1047    949    951      1
  1048    949   1008      1
  1049    952    953      1
  1050    953    954      1
  1051    955    957      1
  1052    956    957      1
  1053    956    958      1
  1054    957    959      1
  1055    958    961      1
  1056    958   1390      1
  1057    959    960      1
  1058    959    961      1
  1059    961    962      1
  1060    963    965      1
  1061    964   1400      1
  1062    965    967      1
  1063    966    967      1
  1064    966   1021      1
  1065    967    970      1
  1066    968    970      1
  1067    968    971      1
  1068    968   1400      1
  1069    970    972      1
  1070    971    973      1
  1071    973   1030      1
  1072    973   1403      1
  1073    974    976      1
  1074    974   1030      1
  1075    974   1031      1
  1076    975    977      1
  1077    976    977      1
  1078    976    978      1
  1079    977    979      1
  1080    978    981      1
  1081    978   1033      1
  1082    979    980      1
  1083    979    982      1
  1084    982    983      1
  1085    983    984      1
  1086    983    985      1
  1087    985    987      1
  1088    986   1356      1
  1089    989    990      1
  1090    990    991      1
  1091    990   1047      1
  1092    990   1049      1
  1093    991    993      1
  1094    991   1422      1
  1095    992    994      1
  1096    993   1421      1
  1097    994   1049      1
  1098    995    998      1
  1099    996    999      1
  1100    996   1000      1
  1101    997    998      1
  1102    998    999      1
  1103    998   1001      1
  1104    999   1000      1
  1105   1001   1059      1
  1106   1001   1428      1
  1107   1002   1003      1
  1108   1003   1007      1
  1109   1004   1005      1
  1110   1005   1061      1
  1111   1005   1065      1
  1112   1006   1007      1
  1113   1007   1008      1
  1114   1008   1010      1
  1115   1009   1011      1
  1116   1009   1065      1
  1117   1009   1070      1
  1118   1010   1011      1
  1119   1011   1012      1
  1120   1012   1014      1
  1121   1012   1442      1
  1122   1013   1014      1
  1123   1014   1015      1
  1124   1015   1018      1
  1125   1015   1076      1
  1126   1016   1019      1
  1127   1018   1019      1
  1128   1018   1079      1
  1129   1020   1022      1
  1130   1021   1022      1
  1131   1022   1023      1
  1132   1024   1028      1
  1133   1024   1090      1
  1134   1025   1088      1
  1135   1025   1093      1
  1136   1027   1028      1
  1137   1028   1029      1
  1138   1029   1093      1
  1139   1030   1032      1
  1140   1032   1462      1
  1141   1034   1037      1
  1142   1035   1038      1
  1143   1035   1102      1
  1144   1035   1518      1
  1145   1036   1040      1
  1146   1037   1040      1
  1147   1039   1464      1
  1148   1040   1042      1
  1149   1041   1043      1
  1150   1042   1044      1
  1151   1043   1044      1
  1152   1043   1045      1
  1153   1045   1471      1
  1154   1046   1476      1
  1155   1048   1051      1
  1156   1048   1112      1
  1157   1049   1050      1
  1158   1052   1054      1
  1159   1052   1114      1
  1160   1052   1479      1
  1161   1053   1054      1
  1162   1054   1056      1
  1163   1055   1057      1
  1164   1056   1058      1
  1165   1056   1118      1
  1166   1057   1059      1
  1167   1057   1061      1
  1168   1058   1060      1
  1169   1059   1062      1
  1170   1060   1063      1
  1171   1061   1063      1
  1172   1063   1064      1
  1173   1064   1065      1
  1174   1064   1067      1
  1175   1066   1067      1
  1176   1067   1069      1
  1177   1068   1490      1
  1178   1071   1073      1
  1179   1072   1074      1
  1180   1072   1075      1
  1181   1072   1076      1
  1182   1073   1075      1
  1183   1074   1132      1
  1184   1074   1497      1
  1185   1075   1131      1
  1186   1076   1077      1
  1187   1077   1078      1
  1188   1077   1079      1
  1189   1079   1080      1
  1190   1080   1081      1
  1191   1080   1502      1
  1192   1081   1084      1
  1193   1082   1085      1
  1194   1082   1135      1
  1195   1083   1084      1
  1196   1083   1086      1
  1197   1084   1087      1
  1198   1086   1090      1
  1199   1087   1088      1
  1200   1087   1090      1
  1201   1088   1089      1
  1202   1090   1091      1
  1203   1092   1094      1
  1204   1093   1506      1
  1205   1094   1095      1
  1206   1094   1097      1
  1207   1095   1145      1
  1208   1095   1149      1
  1209   1095   1512      1
  1210   1096   1098      1
  1211   1097   1098      1
  1212   1097   1099      1
  1213   1099   1149      1
  1214   1099   1151      1
  1215   1100   1102      1
  1216   1102   1103      1
  1217   1103   1104      1
  1218   1103   1105      1
  1219   1105   1106      1
  1220   1105   1107      1
  1221   1106   1520      1
  1222   1106   1524      1
  1223   1108   1161      1
  1224   1109   1111      1
  1225   1109   1527      1
  1226   1113   1533      1
  1227   1114   1115      1
  1228   1114   1534      1
  1229   1115   1117      1
  1230   1115   1118      1
  1231   1116   1176      1
  1232   1117   1539      1
  1233   1117   1542      1
  1234   1118   1121      1
  1235   1120   1122      1
  1236   1121   1123      1
  1237   1121   1124      1
  1238   1122   1124      1
  1239   1122   1184      1
  1240   1122   1542      1
  1241   1124   1125      1
  1242   1126   1187      1
  1243   1127   1130      1
  1244   1128   1129      1
  1245   1128   1131      1
  1246   1129   1130      1
  1247   1130   1194      1
  1248   1131   1132      1
  1249   1132   1133      1
  1250   1134   1135      1
  1251   1135   1136      1
  1252   1136   1137      1
  1253   1137   1203      1
  1254   1138   1139      1
  1255   1138   1140      1
  1256   1138   1144      1
  1257   1139   1141      1
  1258   1139   1142      1
  1259   1142   1143      1
  1260   1143   1144      1
  1261   1143   1206      1
  1262   1144   1208      1
  1263   1146   1147      1
  1264   1148   1150      1
  1265   1148   1219      1
  1266   1148   1565      1
  1267   1149   1150      1
  1268   1150   1569      1
  1269   1152   1153      1
  1270   1153   1155      1
  1271   1153   1221      1
  1272   1154   1156      1
  1273   1155   1157      1
  1274   1155   1158      1
  1275   1156   1157      1
  1276   1159   1231      1
  1277   1160   1161      1
  1278   1162   1231      1
  1279   1163   1164      1
  1280   1163   1165      1
  1281   1164   1168      1
  1282   1165   1582      1
  1283   1166   1167      1
  1284   1167   1169      1
  1285   1168   1170      1
  1286   1168   1533      1
  1287   1168   1583      1
  1288   1169   1172      1
  1289   1171   1172      1
  1290   1172   1173      1
  1291   1173   1174      1
  1292   1173   1175      1
  1293   1175   1176      1
  1294   1175   1177      1
  1295   1177   1178      1
  1296   1177   1179      1
  1297   1179   1180      1
  1298   1181   1183      1
  1299   1182   1183      1
  1300   1183   1185      1
  1301   1184   1187      1
  1302   1184   1595      1
  1303   1185   1189      1
  1304   1186   1188      1
  1305   1187   1188      1
  1306   1188   1193      1
  1307   1189   1190      1
  1308   1190   1192      1
  1309   1191   1194      1
  1310   1192   1195      1
  1311   1193   1194      1
  1312   1193   1195      1
  1313   1194   1196      1
  1314   1195   1606      1
  1315   1197   1199      1
  1316   1198   1199      1
  1317   1198   1611      1
  1318   1199   1201      1
  1319   1200   1201      1
  1320   1200   1203      1
  1321   1201   1202      1
  1322   1203   1204      1
  1323   1204   1206      1
  1324   1205   1209      1
  1325   1206   1207      1
  1326   1208   1210      1
  1327   1208   1560      1
  1328   1209   1211      1
  1329   1210   1211      1
  1330   1211   1215      1
  1331   1212   1214      1
  1332   1212   1215      1
  1333   1212   1216      1
  1334   1213   1216      1
  1335   1215   1218      1
  1336   1216   1217      1
  1337   1219   1220      1
  1338   1219   1565      1
  1339   1220   1221      1
  1340   1220   1223      1
  1341   1221   1224      1
  1342   1222   1226      1
  1343   1223   1225      1
  1344   1223   1633      1
  1345   1224   1225      1
  1346   1224   1226      1
  1347   1225   1228      1
  1348   1227   1230      1
  1349   1229   1230      1
  1350   1230   1233      1
  1351   1230   1234      1
  1352   1231   1233      1
  1353   1232   1235      1
  1354   1233   1235      1
  1355   1236   1238      1
  1356   1237   1240      1
  1357   1238   1297      1
  1358   1238   1706      1
  1359   1239   1584      1
  1360   1240   1241      1
  1361   1240   1242      1
  1362   1243   1244      1
  1363   1244   1645      1
  1364   1245   1246      1
  1365   1246   1247      1
  1366   1247   1249      1
  1367   1247   1250      1
  1368   1248   1306      1
  1369   1251   1252      1
  1370   1252   1253      1
  1371   1252   1254      1
  1372   1252   1256      1
  1373   1254   1255      1
  1374   1256   1258      1
  1375   1256   1315      1
  1376   1257   1258      1
  1377   1257   1659      1
  1378   1257   1664      1
  1379   1258   1259      1
  1380   1258   1260      1
  1381   1261   1262      1
  1382   1262   1264      1
  1383   1263   1668      1
  1384   1264   1265      1
  1385   1265   1267      1
  1386   1267   1268      1
  1387   1267   1671      1
  1388   1268   1269      1
  1389   1268   1725      1
  1390   1269   1271      1
  1391   1270   1271      1
  1392   1271   1272      1
  1393   1271   1332      1
  1394   1274   1275      1
  1395   1275   1277      1
  1396   1275   1332      1
  1397   1276   1277      1
  1398   1276   1278      1
  1399   1277   1279      1
  1400   1279   1281      1
  1401   1279   1336      1
  1402   1280   1282      1
  1403   1281   1282      1
  1404   1281   1283      1
  1405   1282   1284      1
  1406   1283   1285      1
  1407   1283   1688      1
  1408   1284   1287      1
  1409   1284   1345      1
  1410   1285   1289      1
  1411   1289   1348      1
  1412   1289   1697      1
  1413   1290   1697      1
  1414   1291   1636      1
  1415   1293   1295      1
  1416   1293   1700      1
  1417   1294   1295      1
  1418   1296   1360      1
  1419   1298   1299      1
  1420   1299   1301      1
  1421   1300   1302      1
  1422   1301   1302      1
  1423   1302   1305      1
  1424   1303   1304      1
  1425   1303   1708      1
  1426   1303   1710      1
  1427   1304   1306      1
  1428   1305   1309      1
  1429   1305   1370      1
  1430   1306   1308      1
  1431   1307   1711      1
  1432   1308   1309      1
  1433   1309   1310      1
  1434   1310   1311      1
  1435   1311   1313      1
  1436   1312   1313      1
  1437   1313   1379      1
  1438   1314   1316      1
  1439   1315   1316      1
  1440   1316   1318      1
  1441   1317   1379      1
  1442   1319   1320      1
  1443   1319   1382      1
  1444   1320   1719      1
  1445   1320   1722      1
  1446   1321   1323      1
  1447   1322   1323      1
  1448   1323   1324      1
  1449   1324   1326      1
  1450   1326   1327      1
  1451   1327   1328      1
  1452   1327   1333      1
  1453   1328   1329      1
  1454   1329   1332      1
  1455   1330   1333      1
  1456   1331   1332      1
  1457   1333   1334      1
  1458   1333   1401      1
  1459   1335   1337      1
  1460   1336   1337      1
  1461   1337   1339      1
  1462   1338   1341      1
  1463   1340   1341      1
  1464   1340   1342      1
  1465   1341   1406      1
  1466   1342   1344      1
  1467   1343   1345      1
  1468   1344   1346      1
  1469   1344   1409      1
  1470   1345   1347      1
  1471   1345   1348      1
  1472   1346   1347      1
  1473   1347   1352      1
  1474   1348   1351      1
  1475   1349   1742      1
  1476   1350   1353      1
  1477   1351   1354      1
  1478   1353   1354      1
  1479   1353   1355      1
  1480   1355   1356      1
  1481   1357   1358      1
  1482   1358   1748      1
  1483   1359   1360      1
  1484   1359   1752      1
  1485   1360   1361      1
  1486   1361   1363      1
  1487   1361   1364      1
  1488   1362   1363      1
  1489   1363   1365      1
  1490   1364   1366      1
  1491   1365   1421      1
  1492   1366   1425      1
  1493   1366   1759      1
  1494   1367   1369      1
  1495   1368   1370      1
  1496   1369   1427      1
  1497   1369   1431      1
  1498   1370   1371      1
  1499   1370   1372      1
  1500   1373   1374      1
  1501   1373   1431      1
  1502   1374   1375      1
  1503   1375   1377      1
  1504   1375   1767      1
  1505   1376   1377      1
  1506   1377   1381      1
  1507   1377   1768      1
  1508   1378   1380      1
  1509   1379   1382      1
  1510   1380   1381      1
  1511   1380   1383      1
  1512   1381   1774      1
  1513   1383   1385      1
  1514   1384   1385      1
  1515   1384   1774      1
  1516   1384   1778      1
  1517   1385   1387      1
  1518   1386   1388      1
  1519   1387   1388      1
  1520   1387   1389      1
  1521   1388   1390      1
  1522   1389   1391      1
  1523   1389   1778      1
  1524   1390   1393      1
  1525   1391   1392      1
  1526   1392   1394      1
  1527   1393   1395      1
  1528   1393   1447      1
  1529   1394   1395      1
  1530   1394   1396      1
  1531   1395   1398      1
  1532   1397   1790      1
  1533   1398   1399      1
  1534   1398   1400      1
  1535   1399   1449      1
  1536   1399   1451      1
  1537   1402   1454      1
  1538   1402   1790      1
  1539   1402   1793      1
  1540   1404   1407      1
  1541   1405   1846      1
  1542   1406   1407      1
  1543   1406   1409      1
  1544   1407   1408      1
  1545   1407   1410      1
  1546   1409   1411      1
  1547   1410   1411      1
  1548   1410   1412      1
  1549   1411   1415      1
  1550   1413   1415      1
  1551   1414   1416      1
  1552   1414   1464      1
  1553   1415   1416      1
  1554   1416   1417      1
  1555   1418   1420      1
  1556   1419   1420      1
  1557   1420   1421      1
  1558   1422   1423      1
  1559   1423   1477      1
  1560   1424   1425      1
  1561   1425   1812      1
  1562   1425   1815      1
  1563   1426   1428      1
  1564   1428   1430      1
  1565   1429   1815      1
  1566   1431   1432      1
  1567   1433   1435      1
  1568   1433   1817      1
  1569   1434   1435      1
  1570   1434   1436      1
  1571   1434   1485      1
  1572   1435   1438      1
  1573   1436   1437      1
  1574   1436   1488      1
  1575   1439   1442      1
  1576   1440   1441      1
  1577   1440   1494      1
  1578   1441   1442      1
  1579   1443   1444      1
  1580   1444   1446      1
  1581   1444   1447      1
  1582   1445   1446      1
  1583   1446   1448      1
  1584   1447   1449      1
  1585   1448   1449      1
  1586   1448   1837      1
  1587   1450   1452      1
  1588   1451   1452      1
  1589   1451   1454      1
  1590   1452   1453      1
  1591   1454   1455      1
  1592   1456   1458      1
  1593   1457   1459      1
  1594   1457   1844      1
  1595   1457   1846      1
  1596   1458   1459      1
  1597   1458   1508      1
  1598   1459   1460      1
  1599   1461   1462      1
  1600   1462   1464      1
  1601   1463   1518      1
  1602   1465   1467      1
  1603   1465   1515      1
  1604   1465   1853      1
  1605   1466   1467      1
  1606   1467   1468      1
  1607   1467   1469      1
  1608   1468   1520      1
  1609   1468   1522      1
  1610   1469   1470      1
  1611   1469   1855      1
  1612   1473   1474      1
  1613   1473   1475      1
  1614   1475   1476      1
  1615   1475   1530      1
  1616   1476   1479      1
  1617   1477   1478      1
  1618   1477   1480      1
  1619   1479   1480      1
  1620   1480   1481      1
  1621   1482   1483      1
  1622   1482   1865      1
  1623   1483   1484      1
  1624   1484   1487      1
  1625   1485   1486      1
  1626   1485   1487      1
  1627   1486   1874      1
  1628   1487   1489      1
  1629   1488   1490      1
  1630   1489   1491      1
  1631   1489   1492      1
  1632   1490   1492      1
  1633   1491   1493      1
  1634   1491   1549      1
  1635   1492   1494      1
  1636   1493   1495      1
  1637   1493   1883      1
  1638   1494   1495      1
  1639   1495   1496      1
  1640   1498   1499      1
  1641   1498   1883      1
  1642   1499   1500      1
  1643   1499   1558      1
  1644   1500   1501      1
  1645   1500   1888      1
  1646   1501   1503      1
  1647   1501   1890      1
  1648   1504   1891      1
  1649   1505   1511      1
  1650   1507   1510      1
  1651   1509   1510      1
  1652   1509   1512      1
  1653   1510   1511      1
  1654   1511   1514      1
  1655   1511   1901      1
  1656   1512   1513      1
  1657   1514   1515      1
  1658   1514   1516      1
  1659   1517   1518      1
  1660   1518   1520      1
  1661   1519   1570      1
  1662   1521   1575      1
  1663   1522   1523      1
  1664   1522   1525      1
  1665   1524   1525      1
  1666   1526   1641      1
  1667   1528   1530      1
  1668   1529   1532      1
  1669   1529   1581      1
  1670   1530   1531      1
  1671   1531   1532      1
  1672   1532   1533      1
  1673   1535   1539      1
  1674   1536   1537      1
  1675   1536   1538      1
  1676   1536   1915      1
  1677   1538   1541      1
  1678   1538   1979      1
  1679   1539   1540      1
  1680   1539   1541      1
  1681   1541   1590      1
  1682   1542   1592      1
  1683   1543   1922      1
  1684   1544   1546      1
  1685   1545   1547      1
  1686   1546   1549      1
  1687   1546   1927      1
  1688   1547   1549      1
  1689   1547   1550      1
  1690   1548   1600      1
  1691   1550   1551      1
  1692   1550   1553      1
  1693   1552   1554      1
  1694   1553   1555      1
  1695   1554   1556      1
  1696   1554   1987      1
  1697   1555   1556      1
  1698   1555   1557      1
  1699   1556   1608      1
  1700   1559   1561      1
  1701   1560   1561      1
  1702   1560   1623      1
  1703   1561   1562      1
  1704   1562   1563      1
  1705   1563   1564      1
  1706   1563   1627      1
  1707   1566   1567      1
  1708   1567   1568      1
  1709   1567   1569      1
  1710   1568   1571      1
  1711   1569   1570      1
  1712   1570   1575      1
  1713   1571   1574      1
  1714   1571   1575      1
  1715   1572   1573      1
  1716   1572   1576      1
  1717   1572   1959      1
  1718   1574   1906      1
  1719   1576   1641      1
  1720   1578   1579      1
  1721   1578   1580      1
  1722   1578   1581      1
  1723   1580   1584      1
  1724   1580   1970      1
  1725   1581   1583      1
  1726   1582   1585      1
  1727   1583   1585      1
  1728   1585   1587      1
  1729   1586   1972      1
  1730   1587   1588      1
  1731   1589   1976      1
  1732   1589   1982      1
  1733   1590   1591      1
  1734   1590   1592      1
  1735   1592   1595      1
  1736   1593   1596      1
  1737   1593   1982      1
  1738   1593   1985      1
  1739   1594   1598      1
  1740   1595   1600      1
  1741   1596   1597      1
  1742   1597   1598      1
  1743   1597   1601      1
  1744   1598   1600      1
  1745   1598   1602      1
  1746   1599   1601      1
  1747   1600   1604      1
  1748   1601   1603      1
  1749   1605   1606      1
  1750   1606   1611      1
  1751   1607   1608      1
  1752   1607   1609      1
  1753   1607   1989      1
  1754   1608   1610      1
  1755   1609   1612      1
  1756   1609   1990      1
  1757   1611   1613      1
  1758   1612   1613      1
  1759   1613   1616      1
  1760   1614   1615      1
  1761   1615   1618      1
  1762   1615   1938      1
  1763   1616   1617      1
  1764   1616   1619      1
  1765   1618   1619      1
  1766   1618   1998      1
  1767   1619   1620      1
  1768   1620   1622      1
  1769   1621   1624      1
  1770   1622   1625      1
  1771   1623   1624      1
  1772   1623   1627      1
  1773   1624   1625      1
  1774   1624   1628      1
  1775   1625   1626      1
  1776   1626   1627      1
  1777   1626   2006      1
  1778   1630   1632      1
  1779   1631   1632      1
  1780   1632   1635      1
  1781   1634   2013      1
  1782   1635   1638      1
  1783   1637   1639      1
  1784   1638   1639      1
  1785   1639   1640      1
  1786   1640   1641      1
  1787   1642   1644      1
  1788   1643   2022      1
  1789   1644   1645      1
  1790   1644   1646      1
  1791   1646   1647      1
  1792   1647   1648      1
  1793   1648   1649      1
  1794   1648   1650      1
  1795   1650   1652      1
  1796   1651   1653      1
  1797   1652   1655      1
  1798   1652   1713      1
  1799   1652   2037      1
  1800   1653   1654      1
  1801   1653   1656      1
  1802   1654   1655      1
  1803   1654   1657      1
  1804   1655   1658      1
  1805   1656   1661      1
  1806   1658   1660      1
  1807   1658   1715      1
  1808   1661   1663      1
  1809   1662   1663      1
  1810   1663   1665      1
  1811   1664   1666      1
  1812   1665   1666      1
  1813   1665   1667      1
  1814   1666   1668      1
  1815   1667   2047      1
  1816   1667   2049      1
  1817   1668   1672      1
  1818   1669   2049      1
  1819   1670   1673      1
  1820   1672   1673      1
  1821   1672   1674      1
  1822   1673   1675      1
  1823   1675   1677      1
  1824   1676   1678      1
  1825   1676   1725      1
  1826   1677   1678      1
  1827   1678   1679      1
  1828   1680   1681      1
  1829   1681   1682      1
  1830   1681   1684      1
  1831   1682   1685      1
  1832   1683   1684      1
  1833   1684   1686      1
  1834   1685   1686      1
  1835   1685   2069      1
  1836   1686   1687      1
  1837   1687   1688      1
  1838   1688   1691      1
  1839   1689   1692      1
  1840   1689   1736      1
  1841   1689   2078      1
  1842   1690   2079      1
  1843   1692   1693      1
  1844   1692   1740      1
  1845   1693   1695      1
  1846   1694   1695      1
  1847   1694   1696      1
  1848   1695   1698      1
  1849   1699   1702      1
  1850   1700   1701      1
  1851   1703   1704      1
  1852   1703   1751      1
  1853   1704   1705      1
  1854   1705   1706      1
  1855   1705   1707      1
  1856   1709   1710      1
  1857   1710   1711      1
  1858   1711   1764      1
  1859   1712   1764      1
  1860   1714   1715      1
  1861   1715   1717      1
  1862   1716   1718      1
  1863   1717   1718      1
  1864   1717   1720      1
  1865   1718   1719      1
  1866   1720   1721      1
  1867   1720   1723      1
  1868   1721   2116      1
  1869   1724   1785      1
  1870   1725   1726      1
  1871   1726   1727      1
  1872   1727   1728      1
  1873   1727   1729      1
  1874   1727   1785      1
  1875   1729   1730      1
  1876   1730   1732      1
  1877   1730   1791      1
  1878   1731   2134      1
  1879   1732   1733      1
  1880   1732   1795      1
  1881   1733   1735      1
  1882   1733   1738      1
  1883   1734   1737      1
  1884   1735   1738      1
  1885   1735   1739      1
  1886   1736   1737      1
  1887   1736   2134      1
  1888   1737   2142      1
  1889   1740   1741      1
  1890   1742   1744      1
  1891   1742   1804      1
  1892   1743   1744      1
  1893   1744   1745      1
  1894   1745   1747      1
  1895   1746   1747      1
  1896   1747   1749      1
  1897   1750   1752      1
  1898   1751   1752      1
  1899   1751   1754      1
  1900   1753   1754      1
  1901   1753   1755      1
  1902   1753   2155      1
  1903   1754   2158      1
  1904   1755   1757      1
  1905   1755   2227      1
  1906   1756   1759      1
  1907   1757   1761      1
  1908   1757   2161      1
  1909   1758   1760      1
  1910   1759   1760      1
  1911   1760   1762      1
  1912   1761   1763      1
  1913   1761   2166      1
  1914   1762   1763      1
  1915   1762   1765      1
  1916   1763   1818      1
  1917   1764   1766      1
  1918   1765   1767      1
  1919   1765   1815      1
  1920   1766   1767      1
  1921   1768   1771      1
  1922   1769   1770      1
  1923   1770   1771      1
  1924   1770   1772      1
  1925   1771   1773      1
  1926   1772   1776      1
  1927   1772   2175      1
  1928   1773   1774      1
  1929   1773   1775      1
  1930   1776   1777      1
  1931   1777   1780      1
  1932   1778   1779      1
  1933   1780   1781      1
  1934   1781   1782      1
  1935   1781   2187      1
  1936   1782   1784      1
  1937   1783   1784      1
  1938   1784   1787      1
  1939   1785   1786      1
  1940   1786   1787      1
  1941   1786   1791      1
  1942   1787   1788      1
  1943   1787   1789      1
  1944   1789   1790      1
  1945   1789   1792      1
  1946   1794   1795      1
  1947   1794   2199      1
  1948   1795   1797      1
  1949   1796   2199      1
  1950   1797   1798      1
  1951   1798   1845      1
  1952   1799   2141      1
  1953   1800   1802      1
  1954   1801   1803      1
  1955   1801   1854      1
  1956   1802   1803      1
  1957   1802   1804      1
  1958   1803   1805      1
  1959   1806   2215      1
  1960   1807   1809      1
  1961   1807   1857      1
  1962   1808   2222      1
  1963   1810   2228      1
  1964   1811   1813      1
  1965   1811   1861      1
  1966   1813   1814      1
  1967   1814   1817      1
  1968   1815   1817      1
  1969   1816   1818      1
  1970   1816   1819      1
  1971   1816   2234      1
  1972   1819   1820      1
  1973   1819   1871      1
  1974   1820   1822      1
  1975   1821   1822      1
  1976   1822   1823      1
  1977   1823   1824      1
  1978   1823   1825      1
  1979   1826   1828      1
  1980   1826   2251      1
  1981   1827   1828      1
  1982   1827   1882      1
  1983   1827   1885      1
  1984   1828   1829      1
  1985   1829   1830      1
  1986   1829   1832      1
  1987   1830   2255      1
  1988   1831   1832      1
  1989   1831   1885      1
  1990   1831   1889      1
  1991   1832   1833      1
  1992   1834   1835      1
  1993   1835   1836      1
  1994   1835   1838      1
  1995   1836   1837      1
  1996   1837   1839      1
  1997   1838   1840      1
  1998   1838   2261      1
  1999   1840   1841      1
  2000   1840   2265      1
  2001   1842   1844      1
  2002   1843   1844      1
  2003   1843   1897      1
  2004   1845   1846      1
  2005   1845   1848      1
  2006   1847   1849      1
  2007   1848   1849      1
  2008   1849   1850      1
  2009   1850   1851      1
  2010   1850   1852      1
  2011   1852   2344      1
  2012   1854   2280      1
  2013   1856   1908      1
  2014   1857   1859      1
  2015   1858   1859      1
  2016   1858   1860      1
  2017   1859   1861      1
  2018   1860   1862      1
  2019   1860   2295      1
  2020   1861   1862      1
  2021   1862   1863      1
  2022   1863   1867      1
  2023   1863   1869      1
  2024   1864   1867      1
  2025   1865   1866      1
  2026   1865   1919      1
  2027   1867   1868      1
  2028   1868   1918      1
  2029   1868   2301      1
  2030   1869   1871      1
  2031   1869   2232      1
  2032   1870   1924      1
  2033   1871   1872      1
  2034   1871   1873      1
  2035   1873   1875      1
  2036   1873   2239      1
  2037   1874   1876      1
  2038   1875   1877      1
  2039   1875   2307      1
  2040   1876   1877      1
  2041   1877   1879      1
  2042   1878   1881      1
  2043   1879   1880      1
  2044   1879   2378      1
  2045   1880   1930      1
  2046   1881   1882      1
  2047   1881   2313      1
  2048   1883   1930      1
  2049   1884   1886      1
  2050   1885   1886      1
  2051   1886   1888      1
  2052   1887   2319      1
  2053   1888   1889      1
  2054   1890   1891      1
  2055   1890   1942      1
  2056   1891   1892      1
  2057   1892   1893      1
  2058   1892   1897      1
  2059   1893   1895      1
  2060   1894   1896      1
  2061   1894   1945      1
  2062   1894   1948      1
  2063   1895   1896      1
  2064   1895   2330      1
  2065   1896   1898      1
  2066   1896   2332      1
  2067   1897   1900      1
  2068   1899   1900      1
  2069   1900   1901      1
  2070   1901   1902      1
  2071   1903   1904      1
  2072   1903   1905      1
  2073   1903   1955      1
  2074   1904   1956      1
  2075   1904   2346      1
  2076   1906   1907      1
  2077   1906   1960      1
  2078   1910   1911      1
  2079   1911   1912      1
  2080   1911   1914      1
  2081   1912   1915      1
  2082   1912   1972      1
  2083   1913   1914      1
  2084   1913   2362      1
  2085   1913   2363      1
  2086   1914   1917      1
  2087   1915   1916      1
  2088   1916   1917      1
  2089   1916   1919      1
  2090   1917   1918      1
  2091   1918   2366      1
  2092   1919   1922      1
  2093   1920   1921      1
  2094   1920   1980      1
  2095   1920   2366      1
  2096   1922   1923      1
  2097   1922   1924      1
  2098   1924   1925      1
  2099   1925   1926      1
  2100   1926   1928      1
  2101   1928   1929      1
  2102   1929   2374      1
  2103   1929   2379      1
  2104   1930   1932      1
  2105   1931   1987      1
  2106   1933   1988      1
  2107   1933   1992      1
  2108   1933   2383      1
  2109   1934   1938      1
  2110   1935   2388      1
  2111   1936   1937      1
  2112   1936   2320      1
  2113   1936   2388      1
  2114   1938   1939      1
  2115   1938   1996      1
  2116   1940   1942      1
  2117   1941   1943      1
  2118   1942   1945      1
  2119   1943   1944      1
  2120   1943   1946      1
  2121   1943   1997      1
  2122   1946   1947      1
  2123   1946   1949      1
  2124   1946   2004      1
  2125   1948   1950      1
  2126   1948   2400      1
  2127   1949   1950      1
  2128   1949   2005      1
  2129   1950   1951      1
  2130   1952   1954      1
  2131   1953   1955      1
  2132   1954   1956      1
  2133   1954   2408      1
  2134   1955   1957      1
  2135   1956   1957      1
  2136   1957   1958      1
  2137   1961   1962      1
  2138   1962   1963      1
  2139   1962   2015      1
  2140   1963   1964      1
  2141   1963   1965      1
  2142   1964   2410      1
  2143   1964   2469      1
  2144   1966   1968      1
  2145   1967   1968      1
  2146   1967   1970      1
  2147   1968   1969      1
  2148   1968   1971      1
  2149   1969   1973      1
  2150   1970   1972      1
  2151   1973   1974      1
  2152   1974   1975      1
  2153   1974   1978      1
  2154   1975   1977      1
  2155   1975   2416      1
  2156   1976   1978      1
  2157   1978   1981      1
  2158   1981   1982      1
  2159   1983   1984      1
  2160   1984   2428      1
  2161   1987   1989      1
  2162   1991   1993      1
  2163   1992   1993      1
  2164   1992   2444      1
  2165   1993   1994      1
  2166   1994   1996      1
  2167   1995   2447      1
  2168   1996   1997      1
  2169   1997   1998      1
  2170   1997   2001      1
  2171   1998   2000      1
  2172   1999   2001      1
  2173   1999   2451      1
  2174   2000   2002      1
  2175   2001   2002      1
  2176   2003   2005      1
  2177   2004   2006      1
  2178   2005   2403      1
  2179   2006   2007      1
  2180   2008   2010      1
  2181   2008   2458      1
  2182   2009   2010      1
  2183   2010   2011      1
  2184   2012   2015      1
  2185   2013   2014      1
  2186   2013   2016      1
  2187   2014   2017      1
  2188   2015   2469      1
  2189   2020   2023      1
  2190   2021   2022      1
  2191   2021   2023      1
  2192   2023   2025      1
  2193   2024   2414      1
  2194   2025   2026      1
  2195   2027   2030      1
  2196   2028   2032      1
  2197   2029   2481      1
  2198   2030   2032      1
  2199   2030   2098      1
  2200   2031   2034      1
  2201   2032   2033      1
  2202   2032   2034      1
  2203   2034   2036      1
  2204   2035   2036      1
  2205   2035   2102      1
  2206   2035   2484      1
  2207   2036   2038      1
  2208   2038   2039      1
  2209   2038   2040      1
  2210   2039   2042      1
  2211   2040   2041      1
  2212   2040   2044      1
  2213   2040   2487      1
  2214   2043   2045      1
  2215   2044   2046      1
  2216   2044   2491      1
  2217   2045   2112      1
  2218   2045   2113      1
  2219   2046   2113      1
  2220   2046   2497      1
  2221   2047   2048      1
  2222   2048   2050      1
  2223   2049   2051      1
  2224   2050   2051      1
  2225   2050   2052      1
  2226   2051   2053      1
  2227   2053   2055      1
  2228   2053   2056      1
  2229   2053   2120      1
  2230   2054   2055      1
  2231   2054   2119      1
  2232   2054   2504      1
  2233   2055   2057      1
  2234   2057   2058      1
  2235   2057   2061      1
  2236   2058   2059      1
  2237   2060   2127      1
  2238   2061   2063      1
  2239   2061   2507      1
  2240   2062   2128      1
  2241   2063   2570      1
  2242   2064   2065      1
  2243   2066   2135      1
  2244   2067   2070      1
  2245   2068   2134      1
  2246   2069   2071      1
  2247   2070   2071      1
  2248   2070   2072      1
  2249   2070   2075      1
  2250   2073   2076      1
  2251   2074   2075      1
  2252   2074   2135      1
  2253   2074   2518      1
  2254   2075   2076      1
  2255   2075   2077      1
  2256   2076   2078      1
  2257   2078   2080      1
  2258   2079   2081      1
  2259   2080   2081      1
  2260   2080   2082      1
  2261   2081   2083      1
  2262   2082   2084      1
  2263   2082   2144      1
  2264   2083   2084      1
  2265   2083   2085      1
  2266   2084   2086      1
  2267   2086   2148      1
  2268   2086   2530      1
  2269   2088   2530      1
  2270   2089   2090      1
  2271   2089   2153      1
  2272   2091   2092      1
  2273   2092   2094      1
  2274   2092   2158      1
  2275   2093   2094      1
  2276   2094   2095      1
  2277   2095   2096      1
  2278   2095   2160      1
  2279   2096   2165      1
  2280   2097   2099      1
  2281   2098   2099      1
  2282   2099   2100      1
  2283   2100   2101      1
  2284   2100   2102      1
  2285   2102   2487      1
  2286   2103   2105      1
  2287   2104   2108      1
  2288   2105   2106      1
  2289   2105   2107      1
  2290   2107   2108      1
  2291   2107   2110      1
  2292   2108   2109      1
  2293   2109   2487      1
  2294   2109   2546      1
  2295   2110   2111      1
  2296   2110   2171      1
  2297   2111   2114      1
  2298   2111   2546      1
  2299   2113   2115      1
  2300   2114   2177      1
  2301   2114   2552      1
  2302   2115   2117      1
  2303   2115   2551      1
  2304   2116   2117      1
  2305   2117   2118      1
  2306   2121   2122      1
  2307   2122   2123      1
  2308   2122   2125      1
  2309   2123   2124      1
  2310   2123   2187      1
  2311   2123   2193      1
  2312   2124   2126      1
  2313   2124   2188      1
  2314   2125   2127      1
  2315   2126   2129      1
  2316   2126   2565      1
  2317   2127   2128      1
  2318   2128   2129      1
  2319   2129   2130      1
  2320   2130   2568      1
  2321   2130   2570      1
  2322   2131   2132      1
  2323   2132   2136      1
  2324   2132   2573      1
  2325   2132   2574      1
  2326   2133   2137      1
  2327   2135   2136      1
  2328   2135   2138      1
  2329   2136   2578      1
  2330   2137   2139      1
  2331   2137   2202      1
  2332   2140   2202      1
  2333   2140   2580      1
  2334   2140   2629      1
  2335   2141   2142      1
  2336   2141   2209      1
  2337   2142   2143      1
  2338   2144   2147      1
  2339   2145   2147      1
  2340   2146   2209      1
  2341   2146   2213      1
  2342   2147   2148      1
  2343   2147   2151      1
  2344   2148   2149      1
  2345   2150   2216      1
  2346   2151   2152      1
  2347   2151   2153      1
  2348   2155   2156      1
  2349   2156   2157      1
  2350   2157   2159      1
  2351   2157   2224      1
  2352   2157   2226      1
  2353   2158   2160      1
  2354   2160   2161      1
  2355   2161   2163      1
  2356   2162   2164      1
  2357   2162   2594      1
  2358   2162   2595      1
  2359   2163   2165      1
  2360   2163   2166      1
  2361   2165   2167      1
  2362   2166   2168      1
  2363   2168   2169      1
  2364   2169   2236      1
  2365   2170   2171      1
  2366   2171   2173      1
  2367   2172   2173      1
  2368   2173   2176      1
  2369   2174   2175      1
  2370   2175   2176      1
  2371   2176   2178      1
  2372   2178   2180      1
  2373   2178   2248      1
  2374   2179   2180      1
  2375   2180   2183      1
  2376   2181   2184      1
  2377   2181   2248      1
  2378   2181   2251      1
  2379   2182   2185      1
  2380   2183   2184      1
  2381   2183   2610      1
  2382   2184   2254      1
  2383   2185   2187      1
  2384   2185   2188      1
  2385   2186   2188      1
  2386   2186   2610      1
  2387   2186   2611      1
  2388   2189   2191      1
  2389   2189   2610      1
  2390   2189   2613      1
  2391   2189   2671      1
  2392   2190   2191      1
  2393   2190   2192      1
  2394   2190   2254      1
  2395   2191   2194      1
  2396   2194   2195      1
  2397   2194   2616      1
  2398   2196   2198      1
  2399   2196   2262      1
  2400   2196   2264      1
  2401   2197   2198      1
  2402   2198   2199      1
  2403   2200   2201      1
  2404   2200   2264      1
  2405   2201   2203      1
  2406   2201   2624      1
  2407   2202   2203      1
  2408   2203   2205      1
  2409   2204   2205      1
  2410   2204   2271      1
  2411   2204   2690      1
  2412   2205   2208      1
  2413   2206   2207      1
  2414   2207   2209      1
  2415   2207   2210      1
  2416   2208   2211      1
  2417   2208   2629      1
  2418   2210   2212      1
  2419   2210   2213      1
  2420   2211   2278      1
  2421   2211   2634      1
  2422   2213   2215      1
  2423   2214   2217      1
  2424   2215   2217      1
  2425   2216   2218      1
  2426   2216   2635      1
  2427   2217   2219      1
  2428   2217   2220      1
  2429   2218   2220      1
  2430   2218   2221      1
  2431   2219   2285      1
  2432   2222   2223      1
  2433   2222   2228      1
  2434   2223   2287      1
  2435   2224   2225      1
  2436   2224   2589      1
  2437   2226   2227      1
  2438   2226   2229      1
  2439   2227   2228      1
  2440   2228   2229      1
  2441   2229   2230      1
  2442   2230   2231      1
  2443   2230   2291      1
  2444   2231   2299      1
  2445   2231   2648      1
  2446   2232   2234      1
  2447   2232   2297      1
  2448   2233   2234      1
  2449   2235   2236      1
  2450   2236   2595      1
  2451   2236   2602      1
  2452   2237   2239      1
  2453   2238   2241      1
  2454   2239   2242      1
  2455   2239   2305      1
  2456   2240   2241      1
  2457   2240   2658      1
  2458   2241   2243      1
  2459   2243   2244      1
  2460   2243   2247      1
  2461   2244   2659      1
  2462   2244   2664      1
  2463   2245   2247      1
  2464   2246   2248      1
  2465   2247   2249      1
  2466   2249   2250      1
  2467   2249   2252      1
  2468   2250   2253      1
  2469   2250   2664      1
  2470   2252   2315      1
  2471   2252   2316      1
  2472   2254   2255      1
  2473   2256   2258      1
  2474   2257   2258      1
  2475   2257   2259      1
  2476   2257   2323      1
  2477   2258   2261      1
  2478   2259   2260      1
  2479   2259   2324      1
  2480   2260   2262      1
  2481   2260   2681      1
  2482   2261   2262      1
  2483   2263   2682      1
  2484   2264   2684      1
  2485   2265   2267      1
  2486   2265   2334      1
  2487   2266   2267      1
  2488   2267   2270      1
  2489   2268   2269      1
  2490   2269   2270      1
  2491   2269   2272      1
  2492   2269   2337      1
  2493   2270   2271      1
  2494   2273   2277      1
  2495   2274   2276      1
  2496   2275   2278      1
  2497   2276   2277      1
  2498   2276   2279      1
  2499   2277   2280      1
  2500   2278   2281      1
  2501   2278   2696      1
  2502   2280   2284      1
  2503   2281   2283      1
  2504   2281   2697      1
  2505   2282   2284      1
  2506   2284   2285      1
  2507   2286   2357      1
  2508   2287   2291      1
  2509   2288   2290      1
  2510   2289   2290      1
  2511   2289   2292      1
  2512   2289   2701      1
  2513   2290   2291      1
  2514   2292   2293      1
  2515   2292   2294      1
  2516   2293   2295      1
  2517   2293   2357      1
  2518   2295   2298      1
  2519   2296   2297      1
  2520   2297   2299      1
  2521   2299   2300      1
  2522   2300   2302      1
  2523   2300   2709      1
  2524   2302   2304      1
  2525   2303   2304      1
  2526   2304   2305      1
  2527   2305   2306      1
  2528   2305   2307      1
  2529   2307   2309      1
  2530   2308   2309      1
  2531   2308   2311      1
  2532   2308   2312      1
  2533   2309   2310      1
  2534   2309   2313      1
  2535   2310   2376      1
  2536   2310   2378      1
  2537   2312   2377      1
  2538   2312   2725      1
  2539   2313   2314      1
  2540   2314   2318      1
  2541   2317   2318      1
  2542   2318   2319      1
  2543   2319   2320      1
  2544   2320   2322      1
  2545   2321   2322      1
  2546   2322   2393      1
  2547   2324   2325      1
  2548   2324   2738      1
  2549   2325   2326      1
  2550   2326   2327      1
  2551   2326   2331      1
  2552   2327   2328      1
  2553   2327   2743      1
  2554   2329   2332      1
  2555   2330   2331      1
  2556   2330   2334      1
  2557   2331   2332      1
  2558   2331   2333      1
  2559   2332   2336      1
  2560   2334   2337      1
  2561   2335   2339      1
  2562   2336   2338      1
  2563   2336   2339      1
  2564   2337   2341      1
  2565   2339   2405      1
  2566   2340   2341      1
  2567   2341   2344      1
  2568   2342   2750      1
  2569   2343   2405      1
  2570   2343   2753      1
  2571   2344   2345      1
  2572   2345   2347      1
  2573   2345   2348      1
  2574   2346   2348      1
  2575   2347   2349      1
  2576   2348   2350      1
  2577   2349   2758      1
  2578   2349   2759      1
  2579   2350   2351      1
  2580   2350   2352      1
  2581   2351   2353      1
  2582   2351   2759      1
  2583   2355   2357      1
  2584   2356   2358      1
  2585   2358   2359      1
  2586   2358   2411      1
  2587   2359   2361      1
  2588   2359   2363      1
  2589   2360   2361      1
  2590   2360   2769      1
  2591   2363   2364      1
  2592   2364   2365      1
  2593   2364   2366      1
  2594   2365   2367      1
  2595   2365   2418      1
  2596   2367   2368      1
  2597   2367   2780      1
  2598   2368   2369      1
  2599   2368   2779      1
  2600   2370   2371      1
  2601   2370   2781      1
  2602   2370   2783      1
  2603   2372   2373      1
  2604   2373   2374      1
  2605   2373   2427      1
  2606   2374   2434      1
  2607   2375   2376      1
  2608   2376   2377      1
  2609   2377   2791      1
  2610   2378   2379      1
  2611   2379   2381      1
  2612   2380   2384      1
  2613   2380   2436      1
  2614   2380   2790      1
  2615   2381   2382      1
  2616   2381   2383      1
  2617   2384   2385      1
  2618   2385   2386      1
  2619   2385   2387      1
  2620   2387   2389      1
  2621   2387   2441      1
  2622   2388   2390      1
  2623   2389   2390      1
  2624   2389   2391      1
  2625   2390   2393      1
  2626   2392   2394      1
  2627   2392   2801      1
  2628   2392   2803      1
  2629   2393   2395      1
  2630   2395   2400      1
  2631   2396   2452      1
  2632   2397   2399      1
  2633   2398   2399      1
  2634   2399   2400      1
  2635   2399   2401      1
  2636   2401   2402      1
  2637   2401   2403      1
  2638   2402   2404      1
  2639   2403   2459      1
  2640   2404   2807      1
  2641   2404   2811      1
  2642   2405   2406      1
  2643   2407   2408      1
  2644   2408   2409      1
  2645   2411   2413      1
  2646   2412   2415      1
  2647   2412   2823      1
  2648   2412   2824      1
  2649   2413   2414      1
  2650   2413   2415      1
  2651   2414   2416      1
  2652   2415   2417      1
  2653   2417   2418      1
  2654   2417   2826      1
  2655   2418   2420      1
  2656   2419   2421      1
  2657   2420   2422      1
  2658   2421   2423      1
  2659   2421   2834      1
  2660   2422   2423      1
  2661   2422   2425      1
  2662   2423   2426      1
  2663   2424   2425      1
  2664   2425   2427      1
  2665   2425   2428      1
  2666   2426   2428      1
  2667   2427   2429      1
  2668   2428   2431      1
  2669   2429   2844      1
  2670   2430   2432      1
  2671   2431   2432      1
  2672   2431   2433      1
  2673   2432   2435      1
  2674   2435   2438      1
  2675   2435   2845      1
  2676   2436   2439      1
  2677   2436   2845      1
  2678   2437   2439      1
  2679   2438   2440      1
  2680   2439   2440      1
  2681   2439   2441      1
  2682   2440   2443      1
  2683   2441   2444      1
  2684   2442   2852      1
  2685   2443   2445      1
  2686   2443   2446      1
  2687   2446   2448      1
  2688   2446   2852      1
  2689   2448   2449      1
  2690   2448   2450      1
  2691   2450   2452      1
  2692   2451   2453      1
  2693   2452   2803      1
  2694   2453   2454      1
  2695   2453   2456      1
  2696   2455   2456      1
  2697   2456   2457      1
  2698   2457   2458      1
  2699   2458   2459      1
  2700   2459   2460      1
  2701   2460   2461      1
  2702   2461   2463      1
  2703   2461   2811      1
  2704   2462   2875      1
  2705   2464   2465      1
  2706   2465   2466      1
  2707   2467   2468      1
  2708   2467   2471      1
  2709   2468   2470      1
  2710   2469   2472      1
  2711   2470   2884      1
  2712   2470   2885      1
  2713   2471   2472      1
  2714   2472   2473      1
  2715   2474   2477      1
  2716   2475   2476      1
  2717   2476   2477      1
  2718   2476   2478      1
  2719   2477   2535      1
  2720   2479   2481      1
  2721   2480   2482      1
  2722   2481   2484      1
  2723   2481   2540      1
  2724   2482   2537      1
  2725   2483   2485      1
  2726   2484   2485      1
  2727   2486   2487      1
  2728   2488   2489      1
  2729   2489   2491      1
  2730   2490   2548      1
  2731   2491   2492      1
  2732   2493   2494      1
  2733   2494   2495      1
  2734   2494   2496      1
  2735   2495   2497      1
  2736   2497   2553      1
  2737   2498   2556      1
  2738   2499   2500      1
  2739   2500   2501      1
  2740   2500   2503      1
  2741   2501   2504      1
  2742   2501   2505      1
  2743   2502   2503      1
  2744   2503   2506      1
  2745   2504   2562      1
  2746   2505   2506      1
  2747   2505   2507      1
  2748   2507   2508      1
  2749   2509   2510      1
  2750   2510   2511      1
  2751   2510   2512      1
  2752   2510   2514      1
  2753   2512   2570      1
  2754   2512   2573      1
  2755   2513   2515      1
  2756   2515   2517      1
  2757   2516   2517      1
  2758   2518   2520      1
  2759   2518   2578      1
  2760   2519   2523      1
  2761   2520   2521      1
  2762   2520   2522      1
  2763   2522   2523      1
  2764   2523   2524      1
  2765   2524   2525      1
  2766   2525   2529      1
  2767   2526   2527      1
  2768   2527   2531      1
  2769   2528   2530      1
  2770   2529   2531      1
  2771   2532   2533      1
  2772   2532   2534      1
  2773   2533   2535      1
  2774   2533   2537      1
  2775   2534   2536      1
  2776   2534   2590      1
  2777   2535   2537      1
  2778   2536   2538      1
  2779   2536   2539      1
  2780   2539   2541      1
  2781   2539   2592      1
  2782   2542   2597      1
  2783   2543   2544      1
  2784   2543   2599      1
  2785   2544   2545      1
  2786   2545   2547      1
  2787   2545   2548      1
  2788   2546   2547      1
  2789   2547   2549      1
  2790   2548   2550      1
  2791   2551   2552      1
  2792   2551   2553      1
  2793   2552   2554      1
  2794   2553   2556      1
  2795   2555   2556      1
  2796   2556   2559      1
  2797   2557   2558      1
  2798   2558   2559      1
  2799   2558   2561      1
  2800   2559   2560      1
  2801   2559   2562      1
  2802   2561   2611      1
  2803   2562   2564      1
  2804   2563   2564      1
  2805   2564   2566      1
  2806   2565   2568      1
  2807   2565   2617      1
  2808   2566   2567      1
  2809   2566   2568      1
  2810   2567   2569      1
  2811   2569   2571      1
  2812   2573   2576      1
  2813   2575   2576      1
  2814   2575   2577      1
  2815   2576   2579      1
  2816   2578   2579      1
  2817   2579   2581      1
  2818   2580   2581      1
  2819   2581   2582      1
  2820   2583   2584      1
  2821   2584   2628      1
  2822   2584   2632      1
  2823   2585   2632      1
  2824   2588   2589      1
  2825   2589   2642      1
  2826   2590   2592      1
  2827   2591   2593      1
  2828   2592   2594      1
  2829   2593   2643      1
  2830   2595   2649      1
  2831   2596   2597      1
  2832   2597   2599      1
  2833   2598   2653      1
  2834   2599   2601      1
  2835   2600   2601      1
  2836   2601   2603      1
  2837   2602   2603      1
  2838   2602   2656      1
  2839   2605   2606      1
  2840   2605   2656      1
  2841   2606   2607      1
  2842   2607   2608      1
  2843   2609   2610      1
  2844   2613   2616      1
  2845   2614   2615      1
  2846   2615   2619      1
  2847   2615   2676      1
  2848   2616   2617      1
  2849   2617   2618      1
  2850   2619   2621      1
  2851   2619   2622      1
  2852   2620   2681      1
  2853   2623   2625      1
  2854   2623   2685      1
  2855   2625   2626      1
  2856   2625   2691      1
  2857   2627   2628      1
  2858   2628   2631      1
  2859   2629   2630      1
  2860   2631   2633      1
  2861   2632   2633      1
  2862   2633   2636      1
  2863   2634   2635      1
  2864   2635   2636      1
  2865   2636   2637      1
  2866   2636   2638      1
  2867   2639   2641      1
  2868   2639   2642      1
  2869   2640   2641      1
  2870   2641   2644      1
  2871   2642   2643      1
  2872   2644   2645      1
  2873   2644   2705      1
  2874   2645   2646      1
  2875   2645   2647      1
  2876   2647   2648      1
  2877   2647   2649      1
  2878   2648   2650      1
  2879   2650   2651      1
  2880   2650   2709      1
  2881   2653   2654      1
  2882   2655   2658      1
  2883   2656   2657      1
  2884   2658   2660      1
  2885   2660   2661      1
  2886   2660   2720      1
  2887   2661   2663      1
  2888   2662   2663      1
  2889   2663   2724      1
  2890   2664   2665      1
  2891   2666   2668      1
  2892   2668   2669      1
  2893   2669   2670      1
  2894   2672   2675      1
  2895   2673   2674      1
  2896   2674   2675      1
  2897   2675   2679      1
  2898   2676   2677      1
  2899   2679   2680      1
  2900   2679   2681      1
  2901   2682   2683      1
  2902   2682   2684      1
  2903   2683   2686      1
  2904   2683   2741      1
  2905   2684   2685      1
  2906   2685   2688      1
  2907   2686   2687      1
  2908   2686   2688      1
  2909   2688   2689      1
  2910   2691   2692      1
  2911   2692   2694      1
  2912   2693   2694      1
  2913   2693   2751      1
  2914   2697   2698      1
  2915   2699   2700      1
  2916   2699   2770      1
  2917   2701   2702      1
  2918   2701   2704      1
  2919   2702   2703      1
  2920   2702   2705      1
  2921   2705   2706      1
  2922   2707   2775      1
  2923   2708   2710      1
  2924   2708   2776      1
  2925   2708   2779      1
  2926   2709   2712      1
  2927   2710   2711      1
  2928   2710   2712      1
  2929   2712   2713      1
  2930   2712   2714      1
  2931   2714   2716      1
  2932   2714   2782      1
  2933   2717   2719      1
  2934   2718   2719      1
  2935   2719   2721      1
  2936   2719   2722      1
  2937   2722   2726      1
  2938   2722   2727      1
  2939   2723   2725      1
  2940   2723   2791      1
  2941   2725   2726      1
  2942   2725   2728      1
  2943   2726   2729      1
  2944   2727   2730      1
  2945   2729   2730      1
  2946   2729   2731      1
  2947   2730   2732      1
  2948   2733   2799      1
  2949   2734   2795      1
  2950   2734   2800      1
  2951   2735   2737      1
  2952   2736   2740      1
  2953   2739   2740      1
  2954   2740   2742      1
  2955   2742   2744      1
  2956   2742   2746      1
  2957   2743   2744      1
  2958   2744   2747      1
  2959   2747   2749      1
  2960   2747   2810      1
  2961   2748   2749      1
  2962   2749   2752      1
  2963   2750   2751      1
  2964   2750   2752      1
  2965   2752   2753      1
  2966   2753   2812      1
  2967   2754   2755      1
  2968   2755   2757      1
  2969   2756   2759      1
  2970   2757   2760      1
  2971   2759   2761      1
  2972   2760   2763      1
  2973   2762   2763      1
  2974   2762   2766      1
  2975   2763   2765      1
  2976   2764   2765      1
  2977   2767   2769      1
  2978   2768   2769      1
  2979   2769   2770      1
  2980   2770   2771      1
  2981   2771   2772      1
  2982   2771   2773      1
  2983   2772   2775      1
  2984   2773   2774      1
  2985   2773   2776      1
  2986   2775   2776      1
  2987   2777   2778      1
  2988   2778   2829      1
  2989   2778   2833      1
  2990   2780   2833      1
  2991   2781   2839      1
  2992   2782   2783      1
  2993   2783   2784      1
  2994   2785   2787      1
  2995   2786   2788      1
  2996   2787   2788      1
  2997   2787   2789      1
  2998   2788   2792      1
  2999   2789   2790      1
  3000   2789   2791      1
  3001   2790   2844      1
  3002   2792   2793      1
  3003   2794   2795      1
  3004   2794   2797      1
  3005   2796   2797      1
  3006   2796   2851      1
  3007   2797   2798      1
  3008   2799   2800      1
  3009   2799   2801      1
  3010   2800   2802      1
  3011   2803   2854      1
  3012   2804   2805      1
  3013   2805   2806      1
  3014   2805   2864      1
  3015   2806   2808      1
  3016   2806   2869      1
  3017   2808   2873      1
  3018   2809   2810      1
  3019   2810   2812      1
  3020   2811   2813      1
  3021   2812   2813      1
  3022   2813   2814      1
  3023   2814   2815      1
  3024   2814   2816      1
  3025   2816   2817      1
  3026   2816   2818      1
  3027   2818   2819      1
  3028   2818   2882      1
  3029   2820   2821      1
  3030   2822   2823      1
  3031   2825   2828      1
  3032   2827   2828      1
  3033   2828   2829      1
  3034   2828   2831      1
  3035   2830   2831      1
  3036   2830   2834      1
  3037   2832   2833      1
  3038   2836   2838      1
  3039   2837   2838      1
  3040   2838   2840      1
  3041   2839   2842      1
  3042   2841   2842      1
  3043   2842   2843      1
  3044   2842   2844      1
  3045   2845   2847      1
  3046   2847   2848      1
  3047   2848   2850      1
  3048   2849   2850      1
  3049   2850   2851      1
  3050   2851   2853      1
  3051   2852   2854      1
  3052   2853   2854      1
  3053   2853   2856      1
  3054   2853   2858      1
  3055   2855   2858      1
  3056   2857   2858      1
  3057   2858   2860      1
  3058   2859   2860      1
  3059   2860   2861      1
  3060   2860   2863      1
  3061   2861   2866      1
  3062   2862   2865      1
  3063   2863   2864      1
  3064   2863   2867      1
  3065   2866   2867      1
  3066   2867   2868      1
  3067   2870   2871      1
  3068   2871   2872      1
  3069   2872   2873      1
  3070   2873   2876      1
  3071   2874   2875      1
  3072   2875   2878      1
  3073   2878   2879      1
  3074   2879   2884      1
  3075   2880   2881      1
  3076   2881   2883      1
  3077   2882   2883      1
  3078   2883   2884      1
  3079   2886   2887     du
  3080   2887   2888     du
  3081   2888   2889     du
  3082   2889   2886     du
  3083   2890   2891     du
  3084   2891   2892     du
  3085   2892   2893     du
  3086   2893   2890     du
  3087   2889   2893     du
  3088   2890   2886     du
  3089   2888   2892     du
  3090   2891   2887     du
