@<TRIPOS>MOLECULE
LAMMPS data file via write_data, version 29 Oct 2020, timestep = 100 > lmp2SYBYLmol2 v3.0 / 24 May 2023 w/remove_PBC_bonds=True
  2798 3013    0    0    0
SMALL
NO_CHARGES
****
Energy = 0

@<TRIPOS>ATOM
      1 C          -13.1780   -14.5457   -13.0785 C       1      m1     0.0017
      2 C          -12.9459   -15.2071   -15.1602 C       1      m1     0.0011
      3 C          -12.7701   -14.1434   -14.5658 C       1      m1    -0.0101
      4 C          -12.5323   -13.9520   -12.1257 C       1      m1     0.0005
      5 C          -12.0548   -12.6864   -14.8125 C       1      m1     0.0410
      6 C          -11.1158   -12.0263   -14.1869 C       1      m1     0.0075
      7 C           -9.8135   -11.7202   -13.7008 C       1      m1     0.0072
      8 H           -9.3028   -12.4273   -11.6054 H       1      m1     0.0186
      9 C           -9.0352   -12.5136   -12.7050 C       1      m1    -0.0211
     10 C           -8.9030   -13.6462   -13.5045 C       1      m1     0.0003
     11 C           -8.6746   -15.1389   -13.9014 C       1      m1    -0.0199
     12 H           -5.5312   -15.1235   -14.1076 H       1      m1     0.0163
     13 C           -5.1313   -14.5331   -14.9826 C       1      m1    -0.0112
     14 C           -4.1404   -11.5404    15.5985 C       1      m1    -0.0202
     15 C           -4.3892   -12.0795   -11.2489 C       1      m1     0.0194
     16 C           -4.1440   -12.4325   -12.4308 C       1      m1    -0.0118
     17 C           -3.9342   -13.1920   -13.4271 C       1      m1     0.0028
     18 C           -3.8803   -14.0633   -14.4993 C       1      m1    -0.0241
     19 C           -3.2374   -10.9578   -14.8075 C       1      m1    -0.0040
     20 H           -2.9826   -14.4383   -14.7222 H       1      m1     0.0201
     21 C           -2.5342   -15.1337   -12.7143 C       1      m1     0.0018
     22 C           -1.9238   -14.2120   -11.7688 C       1      m1    -0.0252
     23 C           -1.4113   -15.2222   -13.6064 C       1      m1    -0.0083
     24 H           -1.7589   -12.1201   -13.7571 H       1      m1     0.0251
     25 C           -1.0773   -11.6739   -14.5389 C       1      m1    -0.0441
     26 C           -0.4636   -14.4221   -11.5632 C       1      m1     0.0018
     27 C           -0.1684   -14.3779   -13.6777 C       1      m1    -0.0049
     28 C            0.0768   -12.2778   -14.7082 C       1      m1    -0.0015
     29 C            0.4211   -13.8898   -12.6135 C       1      m1    -0.0028
     30 C            0.9002   -14.5682   -14.9383 C       1      m1    -0.0157
     31 C            1.2210   -13.0237   -14.8939 C       1      m1    -0.0136
     32 C            1.6302   -12.9656   -12.2256 C       1      m1    -0.0098
     33 C            1.8821   -12.2533   -11.0636 C       1      m1    -0.0082
     34 H            2.2689   -12.9986   -13.2609 H       1      m1     0.0226
     35 H            2.7723   -11.6525   -10.6231 H       1      m1     0.0202
     36 C            4.5397   -11.9267   -14.1586 C       1      m1    -0.0003
     37 C            4.8675   -12.3024    15.5770 C       1      m1     0.0017
     38 C            4.9242   -11.0997   -11.2616 C       1      m1    -0.0123
     39 C            5.2426   -12.8416   -13.3937 C       1      m1    -0.0003
     40 C            5.5097   -12.2798   -12.0159 C       1      m1     0.0400
     41 H            5.5117   -13.7559   -13.7307 H       1      m1     0.0402
     42 C            6.7429   -13.0850   -11.5861 C       1      m1    -0.0037
     43 H            7.6512   -15.3227   -13.7257 H       1      m1     0.0474
     44 C            8.1106   -12.8242   -11.9944 C       1      m1     0.0213
     45 C            9.1253   -11.0408   -13.3130 C       1      m1     0.1600
     46 C            9.0953   -12.2855   -12.6630 C       1      m1    -0.0283
     47 C           10.2101   -14.1697   -11.6122 C       1      m1    -0.0025
     48 C           10.4127   -13.2835   -12.4933 C       1      m1    -0.0173
     49 H           11.0283   -13.7901   -13.1577 H       1      m1     0.0246
     50 H           12.4102   -11.9067   -13.2819 H       1      m1     0.0246
     51 H           12.9995   -13.6107   -13.0947 H       1      m1     0.0177
     52 C           13.3212   -12.5416   -12.8713 C       1      m1    -0.0507
     53 H           13.0106   -14.8658   -15.3837 H       1      m1     0.0215
     54 C           13.4990   -12.3303   -11.4637 C       1      m1     0.0002
     55 H           14.1754   -12.6203   -13.6380 H       1      m1     0.0334
     56 C          -14.5239    -7.3830   -14.6860 C       1      m1    -0.0179
     57 C          -14.2049    -7.4601   -13.3844 C       1      m1    -0.0018
     58 C          -13.4585    -7.1148   -12.4665 C       1      m1    -0.0090
     59 C          -12.0069    -6.6893   -12.3168 C       1      m1    -0.0067
     60 H          -11.5320    -9.4517   -13.4475 H       1      m1     0.0349
     61 C          -10.9551    -7.4661   -12.8093 C       1      m1    -0.0022
     62 C          -10.6065    -8.9031   -13.1887 C       1      m1    -0.0175
     63 C           -9.6287    -6.9277   -12.9283 C       1      m1    -0.0078
     64 C           -9.1791    -9.2924   -13.3557 C       1      m1     0.0031
     65 C           -8.7883   -10.5871   -13.7499 C       1      m1    -0.0165
     66 C           -8.3037    -7.4067   -12.8505 C       1      m1     0.0072
     67 C           -8.1739    -8.5780   -12.5360 C       1      m1    -0.0021
     68 H           -7.9649   -10.7614   -13.1481 H       1      m1     0.0245
     69 H           -7.3876    -9.4830   -12.5771 H       1      m1     0.0532
     70 H           -6.1408   -10.1109   -14.8702 H       1      m1     0.0196
     71 H           -5.6320    -9.4084   -13.2099 H       1      m1    -0.0128
     72 C           -5.5446   -10.8542   -15.4651 C       1      m1    -0.0137
     73 C           -4.9335    -9.5952   -12.3744 C       1      m1     0.2454
     74 C           -3.3729    -9.6218   -12.5717 C       1      m1    -0.0372
     75 C           -2.9246   -10.4923   -13.6748 C       1      m1     0.0014
     76 C           -2.1796    -9.7753   -11.6728 C       1      m1     0.0066
     77 C           -1.8012    -7.0555   -15.1112 C       1      m1    -0.0768
     78 H           -1.5393    -6.7708   -14.0011 H       1      m1     0.0490
     79 H           -1.2049   -10.3990   -11.8606 H       1      m1     0.0186
     80 H           -0.7534   -10.7015   -14.8215 H       1      m1     0.0350
     81 O            0.4809    -7.2555   -15.5176 O       1      m1    -0.4704
     82 H            1.6128   -10.3837   -14.9989 H       1      m1     0.0410
     83 C            2.2287   -11.1115    15.6052 C       1      m1    -0.0290
     84 H            3.4593    -8.9148   -13.2834 H       1      m1     0.0381
     85 C            3.9817    -9.5962   -12.8561 C       1      m1    -0.0378
     86 C            3.8915   -10.1611   -11.4444 C       1      m1     0.0062
     87 H            4.4042    -7.4478   -12.3475 H       1      m1     0.0064
     88 C            4.1250   -10.6450   -13.6204 C       1      m1     0.0155
     89 C            4.6609    -7.3449   -13.4586 C       1      m1     0.2240
     90 C            5.4997    -8.2149   -14.0161 C       1      m1    -0.0591
     91 C            5.7614    -7.5582   -15.4369 C       1      m1    -0.0281
     92 H            5.7230    -8.9040   -13.3680 H       1      m1     0.0589
     93 C            7.9048    -7.3254   -11.8662 C       1      m1     0.0151
     94 C            8.0913    -6.5841   -12.6732 C       1      m1     0.0041
     95 O            8.1794    -9.9960   -13.8091 O       1      m1    -0.4707
     96 C            9.6248    -9.9247   -13.9405 C       1      m1     0.1736
     97 C           11.0297    -9.6942   -14.1910 C       1      m1    -0.0554
     98 C           11.4222    -6.6966   -15.5587 C       1      m1     0.0030
     99 H           12.8435    -9.9290   -13.2679 H       1      m1     0.0218
    100 C           12.2298    -9.4624   -14.0643 C       1      m1    -0.0223
    101 H           12.7822    -9.4262   -14.8996 H       1      m1     0.0604
    102 H           14.0366    -7.6579   -11.2250 H       1      m1     0.0205
    103 H          -14.8096    -6.2943   -14.6486 H       1      m1     0.0129
    104 C          -15.0412    -4.0629   -15.4143 C       1      m1     0.0053
    105 C          -13.7529    -3.5301   -15.0822 C       1      m1     0.0149
    106 H          -13.1248    -3.8518   -14.2279 H       1      m1     0.0079
    107 C          -11.5212    -5.3727   -11.9582 C       1      m1    -0.0058
    108 H          -10.3990    -3.7746   -13.1907 H       1      m1     0.0594
    109 C          -10.5411    -4.7741   -12.9933 C       1      m1    -0.0360
    110 C           -9.3917    -5.4888   -13.0866 C       1      m1     0.0101
    111 C           -7.9882    -4.9683   -13.2287 C       1      m1    -0.0151
    112 H           -7.6302    -3.8492   -13.6553 H       1      m1     0.0371
    113 C           -7.4423    -6.2355   -12.9666 C       1      m1    -0.0154
    114 H           -6.2783    -6.4926   -12.9928 H       1      m1     0.0256
    115 C           -4.9954    -5.0122   -15.2180 C       1      m1     0.0068
    116 C           -4.9032    -2.4778   -13.1085 C       1      m1    -0.0038
    117 H           -3.8129    -2.7640   -14.7571 H       1      m1     0.0204
    118 C           -4.2757    -3.4208   -12.1463 C       1      m1    -0.0212
    119 C           -3.9866    -5.9526   -14.4626 C       1      m1    -0.0166
    120 H           -3.2746    -3.8805   -12.5816 H       1      m1     0.0116
    121 C           -3.2050    -6.6807   -15.4657 C       1      m1     0.0122
    122 H            0.8034    -6.1507   -13.4061 H       1      m1     0.0553
    123 H            1.1042    -4.9002   -11.5930 H       1      m1     0.0106
    124 C            1.4112    -5.3880   -13.8646 C       1      m1     0.0555
    125 C            1.8942    -4.8749   -12.5394 C       1      m1     0.0257
    126 H            1.5867    -4.9689   -14.9898 H       1      m1     0.0817
    127 H            2.0467    -2.6757   -12.2218 H       1      m1     0.0752
    128 C            2.6574    -3.5747   -12.1788 C       1      m1     0.0091
    129 C            3.4550    -3.6431   -11.2634 C       1      m1     0.0021
    130 O            4.1859    -6.0736   -14.0662 O       1      m1    -0.4696
    131 C            5.1438    -6.2497   -15.2832 C       1      m1     0.2049
    132 H            6.5715    -3.8067   -12.8105 H       1      m1     0.0365
    133 C            7.4484    -3.3512   -12.8095 C       1      m1    -0.0266
    134 C            8.0751    -2.4986   -11.8821 C       1      m1    -0.0176
    135 C            7.9228    -4.2294   -13.8554 C       1      m1    -0.0054
    136 C            8.2033    -5.5980   -13.9712 C       1      m1    -0.0003
    137 C            8.8807    -3.4775   -14.8522 C       1      m1    -0.0020
    138 C            9.1502    -5.6732   -15.0678 C       1      m1     0.0022
    139 H           10.9376    -4.2013   -13.3782 H       1      m1     0.0226
    140 H           11.9216    -5.0144   -11.8616 H       1      m1     0.0229
    141 C           11.7105    -3.5867   -13.3840 C       1      m1    -0.0326
    142 C           12.2766    -2.8151   -14.5055 C       1      m1     0.0269
    143 C           12.6861    -3.4045   -12.5700 C       1      m1    -0.0015
    144 C           13.4018    -3.4530   -11.1374 C       1      m1    -0.0095
    145 H           14.9752    -1.0849   -12.2333 H       1      m1     0.0243
    146 C          -14.8005    -0.9956   -15.4673 C       1      m1    -0.0106
    147 C          -14.8195    -1.6384   -11.4743 C       1      m1    -0.0499
    148 C          -13.9847    -2.0248   -14.8934 C       1      m1     0.0174
    149 H          -13.5707     0.9901   -11.9394 H       1      m1     0.0210
    150 C          -13.3184    -1.6243   -11.4272 C       1      m1     0.0070
    151 C          -12.6868     1.4580   -12.4167 C       1      m1    -0.0259
    152 C          -12.0804    -0.9519   -12.2782 C       1      m1    -0.0697
    153 C          -11.9846     0.3125   -12.9228 C       1      m1     0.0066
    154 C          -10.7692    -1.7045   -12.3846 C       1      m1     0.3192
    155 H          -11.1734     0.4350   -13.7382 H       1      m1     0.0517
    156 O           -9.8527    -1.6306   -13.2056 O       1      m1    -0.5049
    157 C           -8.6335     1.6787   -12.5748 C       1      m1    -0.0071
    158 H           -8.0685     1.1165   -13.3912 H       1      m1     0.0538
    159 H           -8.4605     0.0049   -10.8671 H       1      m1     0.0334
    160 H           -8.5271    -2.1483   -15.3750 H       1      m1     0.0653
    161 C           -6.4390    -0.9192   -13.4873 C       1      m1     0.0286
    162 C           -6.1491    -2.1236   -12.3451 C       1      m1     0.0071
    163 C           -5.6479    -1.0412   -14.5915 C       1      m1     0.0053
    164 C           -4.4905    -1.9608   -14.4863 C       1      m1    -0.0255
    165 H           -4.4708     0.4699   -12.4857 H       1      m1     0.0198
    166 C           -3.5668     1.7973   -13.4575 C       1      m1    -0.0025
    167 C           -3.5452     0.1508   -13.0161 C       1      m1    -0.0226
    168 C           -3.2561    -0.8073   -14.0129 C       1      m1     0.0083
    169 C           -2.0479    -1.7524   -15.4638 C       1      m1     0.0103
    170 C           -1.9209    -1.2327   -14.3648 C       1      m1    -0.0517
    171 H           -0.8899    -1.7113   -11.6130 H       1      m1     0.0154
    172 C           -0.4332    -1.4343   -13.4686 C       1      m1     0.1831
    173 C            0.3294    -0.3108   -14.0770 C       1      m1     0.1305
    174 C            0.6852     1.9218   -12.3007 C       1      m1    -0.0235
    175 C            0.8559     0.5629   -15.0663 C       1      m1    -0.0192
    176 O            0.9268    -1.7319   -13.8139 O       1      m1    -0.4745
    177 C            1.0783     2.0059   -14.6295 C       1      m1     0.0010
    178 H            1.3757     1.2273   -12.0079 H       1      m1     0.0268
    179 C            2.7460     1.5600   -14.4110 C       1      m1    -0.0210
    180 H            2.9563     0.5387   -14.1987 H       1      m1     0.0466
    181 C            4.7425    -1.7429   -15.0041 C       1      m1     0.0190
    182 H            5.1018    -0.9995   -11.7900 H       1      m1     0.0253
    183 C            5.3999    -0.7202   -14.3991 C       1      m1     0.0016
    184 C            6.1525    -0.6888   -11.8154 C       1      m1    -0.0059
    185 C            6.1073    -0.2372    15.4920 C       1      m1     0.0012
    186 C            6.4432    -0.8836   -13.3827 C       1      m1    -0.0168
    187 C            6.5511     2.1244   -14.8436 C       1      m1     0.0067
    188 H            7.2787    -1.2214   -13.7634 H       1      m1     0.0214
    189 H            8.6637     0.2368   -14.1436 H       1      m1     0.0241
    190 C            9.2440     2.0722   -14.5789 C       1      m1     0.0046
    191 C            9.2786    -2.0976   -15.1765 C       1      m1    -0.0002
    192 C            9.3234    -2.0066   -12.5123 C       1      m1    -0.0028
    193 C            9.5182     0.6593   -14.7190 C       1      m1    -0.0214
    194 C            9.7370    -1.5393   -13.8793 C       1      m1    -0.0090
    195 C           10.2401    -1.5020   -11.4456 C       1      m1    -0.0051
    196 C           11.2015    -0.7218   -11.9272 C       1      m1    -0.0064
    197 H           10.9286    -0.6016   -13.1632 H       1      m1     0.0320
    198 C           12.5365    -0.2075   -11.6508 C       1      m1    -0.0143
    199 C           12.9707    -1.6389   -14.6604 C       1      m1    -0.0717
    200 H           13.1739     0.4574   -12.3904 H       1      m1     0.0259
    201 C           13.6855    -0.6815   -15.2084 C       1      m1     0.2759
    202 C          -14.5091     6.3749   -13.7200 C       1      m1    -0.0133
    203 H          -13.9889     6.2387   -12.8263 H       1      m1     0.0280
    204 C          -13.1095     3.8227   -11.3665 C       1      m1    -0.0040
    205 C          -12.3058     2.7952   -12.1515 C       1      m1    -0.0046
    206 C          -11.7769     4.3546   -14.8043 C       1      m1     0.0468
    207 C          -11.7049     3.0456   -15.3788 C       1      m1     0.0021
    208 C          -10.8989     5.8115   -13.2517 C       1      m1     0.3030
    209 C          -11.0722     4.4422   -13.7805 C       1      m1    -0.0613
    210 C          -10.6775     4.9785   -11.0461 C       1      m1    -0.0038
    211 C          -10.4186     2.5948   -15.2375 C       1      m1    -0.0772
    212 C          -10.3131     3.5881   -11.3018 C       1      m1     0.0033
    213 C           -9.9013     5.5596   -12.1887 C       1      m1    -0.0535
    214 C           -9.7263     3.3506   -13.8290 C       1      m1     0.0177
    215 C           -9.4261     2.8502   -12.4771 C       1      m1    -0.0065
    216 C           -8.2854     4.1083   -14.2240 C       1      m1     0.0070
    217 C           -8.4265     5.6912   -12.2540 C       1      m1     0.0070
    218 C           -7.8419     3.6380   -15.3036 C       1      m1    -0.0046
    219 C           -7.5094     5.0384   -13.2194 C       1      m1    -0.0093
    220 H           -7.3003     4.3494   -11.2503 H       1      m1     0.0280
    221 C           -6.2860     5.6690   -13.6540 C       1      m1     0.0128
    222 C           -5.6957     5.3786   -15.0664 C       1      m1    -0.0276
    223 H           -5.6355     2.9828   -14.6072 H       1      m1     0.0206
    224 C           -5.0465     3.8964   -14.9484 C       1      m1    -0.0292
    225 H           -4.8400     5.9706   -15.4022 H       1      m1     0.0521
    226 H           -4.2948     2.2049   -11.7236 H       1      m1     0.0187
    227 C           -4.1078     2.8566   -12.5380 C       1      m1    -0.0291
    228 C           -4.0731     5.6855   -11.3022 C       1      m1    -0.0378
    229 C           -3.8522     4.2009   -13.0271 C       1      m1     0.0077
    230 C           -3.5201     4.1439   -14.4375 C       1      m1    -0.0118
    231 C           -3.1657     5.2418   -12.0978 C       1      m1     0.0022
    232 H           -3.0395     5.1926   -14.8436 H       1      m1     0.0274
    233 C           -2.5283     2.8191   -14.8615 C       1      m1     0.0011
    234 H           -2.4971     5.7873   -12.8031 H       1      m1     0.0208
    235 C           -2.1454     2.1740   -13.6275 C       1      m1    -0.0064
    236 C           -1.3300     2.9496   -12.6610 C       1      m1    -0.0083
    237 H           -0.7366     5.6097   -13.3213 H       1      m1     0.0146
    238 C           -0.4061     2.4862   -11.5476 C       1      m1     0.0021
    239 C           -0.3689     3.3483   -13.7327 C       1      m1     0.0001
    240 C            0.0446     4.8490   -13.6166 C       1      m1    -0.0188
    241 C            0.5574     2.4609   -13.5551 C       1      m1     0.0015
    242 C            0.6276     5.2081   -15.0791 C       1      m1    -0.0034
    243 C            1.2813     5.0579   -12.7674 C       1      m1    -0.0001
    244 C            1.2731     5.3281   -11.4233 C       1      m1    -0.0122
    245 C            1.9673     5.4567   -14.7445 C       1      m1    -0.0206
    246 C            2.2664     5.7883   -13.5122 C       1      m1     0.0059
    247 H            2.2311     5.6370    15.4326 H       1      m1     0.0158
    248 C            3.4108     6.4388   -12.9521 C       1      m1    -0.0206
    249 C            3.5295     2.4089   -14.2604 C       1      m1     0.0173
    250 C            3.8208     5.9290   -11.8079 C       1      m1     0.0126
    251 C            4.3867     4.5241   -15.2514 C       1      m1     0.0101
    252 C            4.3786     3.5450   -14.2747 C       1      m1    -0.0316
    253 H            4.7716     3.3435   -13.1553 H       1      m1     0.1211
    254 C            5.2066     6.2164   -11.3811 C       1      m1    -0.0093
    255 O            5.3935     2.9756   -11.5750 O       1      m1    -0.4952
    256 H            5.4724     5.5556   -10.7478 H       1      m1     0.0446
    257 C            7.1204     3.4139   -14.3497 C       1      m1     0.0176
    258 C            7.6366     4.4075   -15.4287 C       1      m1    -0.0042
    259 H            8.1046     5.2888   -12.4924 H       1      m1     0.0277
    260 C            8.3297     2.9415   -13.5553 C       1      m1     0.0039
    261 C            8.3299     4.7964   -11.5257 C       1      m1    -0.0101
    262 C            8.6145     3.4285   -12.2038 C       1      m1     0.0309
    263 C            9.5660     2.6911   -11.3976 C       1      m1    -0.0006
    264 C            9.9724     5.2421   -11.1883 C       1      m1    -0.0287
    265 C            9.9272     2.6034    15.5112 C       1      m1     0.0058
    266 C           10.7447     6.3057   -14.3223 C       1      m1    -0.0241
    267 H           10.4380     5.4094   -14.6170 H       1      m1     0.0253
    268 H          -14.9600     4.5548   -14.0571 H       1      m1     0.0176
    269 C           15.0339     5.4438   -14.5213 C       1      m1    -0.0142
    270 C           15.0475     9.9521   -15.0252 C       1      m1    -0.0133
    271 C          -14.3210     7.5168   -14.5296 C       1      m1     0.0182
    272 C          -13.9235     8.7918   -14.9934 C       1      m1     0.0346
    273 H          -12.9450     9.0827   -13.2544 H       1      m1     0.0390
    274 C          -12.7787    10.3566   -13.2659 C       1      m1    -0.0111
    275 C          -11.7504    10.7565   -14.2010 C       1      m1     0.0004
    276 C          -10.8733    10.1839   -15.0466 C       1      m1     0.0250
    277 O          -10.9493     6.7922   -14.1267 O       1      m1    -0.4616
    278 C           -8.2815     9.9416   -13.7631 C       1      m1     0.0045
    279 H           -8.1545     6.5374   -11.5298 H       1      m1     0.0426
    280 C           -7.7976     8.7879   -14.4631 C       1      m1     0.0204
    281 C           -6.9682     8.2419   -13.3540 C       1      m1     0.0026
    282 C           -6.5780     7.0403   -13.4985 C       1      m1     0.0579
    283 H           -6.1356     8.7501   -12.5302 H       1      m1     0.0733
    284 H           -4.8080     9.2266   -11.5964 H       1      m1     0.0774
    285 O           -3.8977     8.1044   -14.0615 O       1      m1    -0.6319
    286 C           -3.9245     8.6840   -15.4086 C       1      m1     0.3205
    287 H           -3.0239     7.8435   -13.8100 H       1      m1     0.2904
    288 O           -2.9938    10.7794   -13.5692 O       1      m1    -0.4286
    289 H           -1.5105     8.9512   -13.4297 H       1      m1     0.0644
    290 C           -1.2831     9.3953   -15.4735 C       1      m1     0.0366
    291 C           -1.3191    10.9201   -15.3380 C       1      m1    -0.0596
    292 C           -0.7775     8.7471   -14.1171 C       1      m1    -0.0390
    293 H           -0.7611    10.3137   -11.7088 H       1      m1     0.0417
    294 C            0.5809     8.8074   -13.8995 C       1      m1    -0.0008
    295 H            1.0488    10.5085   -14.5869 H       1      m1     0.0313
    296 C            1.4997     8.4384   -15.0516 C       1      m1    -0.0078
    297 C            1.6017     9.2572   -12.7814 C       1      m1    -0.0082
    298 C            2.1782    10.0297   -12.2181 C       1      m1    -0.0236
    299 H            2.9375     9.3788   -11.8249 H       1      m1     0.0198
    300 H            3.8995     7.3781    15.4435 H       1      m1     0.0240
    301 H            4.0381     7.1911   -13.5383 H       1      m1     0.0205
    302 C            4.5637    10.1074   -15.4740 C       1      m1    -0.0129
    303 C            4.5359    10.7663   -12.0520 C       1      m1     0.0006
    304 C            4.7739    10.6749   -14.3713 C       1      m1    -0.0080
    305 C            5.7320     9.7704   -11.9461 C       1      m1    -0.0045
    306 C            5.4649     7.4718   -12.0674 C       1      m1    -0.0158
    307 H            5.7437     7.6151   -13.1454 H       1      m1     0.0245
    308 C            6.9249    10.2482   -12.5130 C       1      m1    -0.0039
    309 C            6.8057     8.0937   -14.8121 C       1      m1    -0.0006
    310 C            8.0266     9.2051   -12.7493 C       1      m1    -0.0058
    311 C            7.9239     8.2743   -13.9968 C       1      m1    -0.0165
    312 H            9.0475     8.3426   -14.3182 H       1      m1     0.0204
    313 C            8.7637     8.7557   -11.7608 C       1      m1    -0.0011
    314 C            9.6330     7.5077   -12.4425 C       1      m1    -0.0111
    315 H           10.4098     9.8960    15.2732 H       1      m1     0.0368
    316 C           10.0885     6.7927   -13.2637 C       1      m1    -0.0051
    317 C           10.6649    10.8010   -11.3270 C       1      m1    -0.0140
    318 H           11.4029     7.8885   -15.4195 H       1      m1     0.0262
    319 C           11.9128     7.0511   -14.9267 C       1      m1    -0.0177
    320 H           12.0423     6.5184   -12.0395 H       1      m1     0.0174
    321 C           13.1334     6.9864   -15.6155 C       1      m1    -0.0059
    322 C           13.3477     8.1302   -11.8119 C       1      m1    -0.0414
    323 H           13.7345     8.2333   -12.7619 H       1      m1     0.0200
    324 H           14.0032     8.6809   -11.1407 H       1      m1     0.0199
    325 C          -14.7142    11.8797   -12.6674 C       1      m1    -0.0202
    326 C          -14.8722    13.4432   -12.7665 C       1      m1    -0.0018
    327 C          -14.3863    11.0455   -15.4044 C       1      m1     0.0285
    328 C          -13.8359    10.9916   -12.9055 C       1      m1    -0.0008
    329 C          -13.9336    13.5378   -13.5975 C       1      m1    -0.0008
    330 C          -13.9562    14.8366   -12.9141 C       1      m1    -0.0097
    331 C          -13.5582    13.1495   -14.8139 C       1      m1     0.0003
    332 H          -11.5607    12.7822   -15.4436 H       1      m1     0.0215
    333 H          -10.3188   -15.2872   -15.1575 H       1      m1     0.0194
    334 H           -9.5565    12.9466   -15.2849 H       1      m1     0.0173
    335 C           -9.4534    14.6256   -14.7283 C       1      m1    -0.0172
    336 C           -8.6051    13.5256   -15.3134 C       1      m1    -0.0329
    337 H           -8.5076    13.7120   -11.1486 H       1      m1     0.0253
    338 C           -8.2246    13.1231   -11.8747 C       1      m1    -0.0517
    339 H           -7.9874    13.4713   -12.8572 H       1      m1     0.0195
    340 C           -8.1235    11.9153   -11.6506 C       1      m1     0.0163
    341 C           -7.9049    11.2236   -12.9978 C       1      m1    -0.0198
    342 H           -7.7328    13.5378   -14.4360 H       1      m1     0.0143
    343 H           -7.8678   -15.2865   -13.1173 H       1      m1     0.0147
    344 H           -7.2989    11.6343   -13.8434 H       1      m1     0.0235
    345 C           -4.5456    14.2135   -11.7873 C       1      m1    -0.0024
    346 H           -4.6868    11.9153   -12.0503 H       1      m1     0.0382
    347 C           -4.0505    11.4072   -11.4959 C       1      m1     0.0435
    348 H           -4.1134    14.9192   -13.8190 H       1      m1     0.0239
    349 C           -3.8269    14.8613   -12.7858 C       1      m1    -0.0198
    350 H           -2.5598    12.8980   -10.9120 H       1      m1     0.0220
    351 C           -2.1287    11.5376   -14.3781 C       1      m1     0.2550
    352 C           -1.5677    12.8040   -13.7086 C       1      m1    -0.0296
    353 C           -1.3865    14.1101   -14.0432 C       1      m1     0.0018
    354 C            1.4358    11.2371   -15.2342 C       1      m1    -0.0503
    355 C            1.9756    15.2240   -14.6627 C       1      m1     0.0094
    356 H            2.3411    11.7533   -15.1170 H       1      m1     0.0265
    357 C            2.9264    14.6821   -14.2723 C       1      m1    -0.0251
    358 C            3.4193    11.0056   -11.0363 C       1      m1    -0.0242
    359 H            2.9713    13.6685   -14.5716 H       1      m1     0.0209
    360 C            3.9515    14.7540   -11.6985 C       1      m1     0.2052
    361 C            4.2772    14.5920   -13.1348 C       1      m1    -0.0260
    362 C            4.9546    11.3965   -13.2390 C       1      m1    -0.0054
    363 C            5.3770    14.1285   -13.5014 C       1      m1     0.0177
    364 C            6.6452    11.4452   -13.2153 C       1      m1    -0.0060
    365 C            6.5333    13.6647   -13.9772 C       1      m1     0.0044
    366 C            7.3943    12.5322   -13.7521 C       1      m1    -0.0041
    367 C            7.4712    14.7275   -14.5181 C       1      m1    -0.0677
    368 H            8.4331    12.8270   -10.9301 H       1      m1     0.0262
    369 C            8.7604    13.1053   -13.5826 C       1      m1     0.0031
    370 C            8.7584    14.0425   -14.7559 C       1      m1    -0.0294
    371 C            9.8888    12.4852   -12.9084 C       1      m1    -0.0151
    372 C           10.4967    11.6089   -12.2030 C       1      m1    -0.0073
    373 C           13.1633    14.6924   -15.2681 C       1      m1    -0.0266
    374 H           12.7543    13.4119   -12.4216 H       1      m1     0.0177
    375 C           13.4145    14.4173   -13.9848 C       1      m1     0.0055
    376 H           13.8127    14.9320   -12.0095 H       1      m1     0.0198
    377 C           13.6029    14.0803   -12.8206 C       1      m1    -0.0393
    378 H           14.7254    11.4775   -11.8745 H       1      m1     0.0138
    379 C          -15.0405   -11.8477    -9.6172 C       1      m1     0.0023
    380 C          -14.9536   -15.0599    -6.9246 C       1      m1    -0.0054
    381 H          -14.6455   -13.9442    -8.9892 H       1      m1     0.0164
    382 C          -14.1798   -11.5191    -8.5415 C       1      m1    -0.0169
    383 H          -13.6359   -12.4105    -8.0545 H       1      m1     0.0161
    384 C          -12.2870   -14.0141   -10.7015 C       1      m1    -0.0253
    385 H          -11.3690    15.3419    -8.9583 H       1      m1     0.0169
    386 H          -11.3001   -11.6072    -7.1837 H       1      m1     0.0227
    387 H          -12.0037   -13.2764    -9.9988 H       1      m1     0.0138
    388 H           -8.5891   -10.8284    -9.6669 H       1      m1     0.0315
    389 H           -6.9589   -15.1293   -10.3669 H       1      m1     0.0185
    390 H           -6.1185   -13.4038    -6.8375 H       1      m1     0.0221
    391 H           -4.9076   -15.1153   -10.0090 H       1      m1     0.0164
    392 H           -4.7207   -13.0344    -9.7561 H       1      m1     0.0106
    393 C           -4.5775   -11.8926    -9.9412 C       1      m1     0.0210
    394 C           -4.6169   -10.7709    -8.9442 C       1      m1    -0.0616
    395 C           -3.6982   -11.1892    -7.7190 C       1      m1     0.0121
    396 H           -2.7111   -13.8813   -11.1024 H       1      m1     0.0161
    397 C           -2.5804   -12.1133    -8.1876 C       1      m1    -0.0101
    398 H           -2.7389   -12.8461    -9.0723 H       1      m1     0.0139
    399 H           -1.9783   -14.3572    -8.4147 H       1      m1     0.0187
    400 C           -1.7933   -15.0949    -7.6794 C       1      m1    -0.0166
    401 C           -1.4344   -11.9829    -7.5383 C       1      m1    -0.0203
    402 H           -0.3279   -12.5334    -7.3704 H       1      m1     0.0560
    403 C           -0.0800   -13.6468   -10.3943 C       1      m1     0.0009
    404 C            0.9727   -12.6601   -10.0156 C       1      m1    -0.0138
    405 H            0.7834   -12.3069    -8.9784 H       1      m1     0.0406
    406 O            2.0673   -12.9849    -6.8217 O       1      m1    -0.4440
    407 C            3.0879   -12.9880    -8.1256 C       1      m1     0.1428
    408 C            3.3191   -12.1291    -6.9291 C       1      m1     0.1738
    409 C            3.5281   -13.9554    -8.7120 C       1      m1    -0.0783
    410 C            4.0650   -14.8919    -9.6278 C       1      m1     0.2301
    411 O            4.8493   -14.8877   -10.9586 O       1      m1    -0.4976
    412 H            6.4965   -13.5098   -10.6697 H       1      m1     0.0706
    413 C            7.8669   -14.3637    -7.6761 C       1      m1    -0.0026
    414 C            8.3920   -14.9756    -8.7682 C       1      m1     0.0054
    415 C            9.0673   -13.7468    -9.5414 C       1      m1    -0.0038
    416 H            9.9417   -14.6428    -6.3983 H       1      m1     0.0677
    417 C            9.8547   -12.6489    -9.4314 C       1      m1     0.0031
    418 C           10.2429   -15.1334   -10.8635 C       1      m1    -0.0070
    419 C           10.3402   -11.3971    -8.8169 C       1      m1    -0.0129
    420 H           11.5927   -13.6520    -9.9957 H       1      m1     0.0245
    421 C           12.5986   -14.1738    -9.8418 C       1      m1    -0.0079
    422 C           13.6487   -13.4150   -10.3936 C       1      m1    -0.0019
    423 C           14.3175   -11.1502   -10.7503 C       1      m1    -0.0062
    424 H           14.5795   -14.5353    -7.7227 H       1      m1     0.0354
    425 C           14.9224   -13.2589    -9.7429 C       1      m1    -0.0173
    426 C          -14.2264   -10.4247    -7.6201 C       1      m1    -0.0161
    427 H          -14.1157    -8.4100    -9.4983 H       1      m1     0.0223
    428 C          -13.7199    -7.4934   -10.9125 C       1      m1     0.0010
    429 H          -13.2174    -6.0493    -8.4111 H       1      m1     0.0247
    430 H          -13.5812   -10.0120    -6.7861 H       1      m1     0.0290
    431 C          -13.2060    -8.6518   -10.0720 C       1      m1    -0.0327
    432 H          -13.4287    -9.4079   -11.0354 H       1      m1     0.0223
    433 C          -11.6879    -8.4151    -9.2731 C       1      m1    -0.0056
    434 C          -11.4907    -7.3807    -8.2095 C       1      m1    -0.0050
    435 C          -11.3931    -6.6656    -7.2631 C       1      m1    -0.0006
    436 H          -10.9708    -7.4395   -10.1017 H       1      m1     0.0188
    437 C          -10.5376    -9.4201    -9.3538 C       1      m1     0.0002
    438 C           -9.5245   -10.3548    -9.1715 C       1      m1    -0.0200
    439 C           -7.9430    -6.4472    -7.5123 C       1      m1    -0.0089
    440 C           -6.4903    -6.9647    -7.5488 C       1      m1    -0.0175
    441 H           -6.1569    -6.6816    -9.6503 H       1      m1     0.0280
    442 C           -5.8447    -7.3520    -8.7922 C       1      m1     0.0133
    443 O           -5.5717    -9.5286   -11.0731 O       1      m1    -0.5026
    444 C           -5.1721    -8.6527    -8.4637 C       1      m1    -0.0553
    445 C           -5.2536    -9.7692    -9.4138 C       1      m1     0.2125
    446 H           -4.9660    -9.1938    -7.4015 H       1      m1     0.0174
    447 H           -4.1702    -6.8740    -6.1387 H       1      m1     0.0386
    448 H           -3.2058    -8.5998   -10.2375 H       1      m1     0.0375
    449 C           -2.3347    -9.2371   -10.4782 C       1      m1    -0.0162
    450 H           -1.8991    -7.1748    -7.4156 H       1      m1     0.0106
    451 C           -0.9610    -9.1444    -9.9568 C       1      m1    -0.0251
    452 H           -0.3969   -10.0418    -9.4378 H       1      m1     0.0154
    453 C           -0.3786    -8.1986   -10.3127 C       1      m1    -0.0017
    454 C            0.4867    -7.0716   -10.6140 C       1      m1    -0.0242
    455 H           -0.0215    -9.0865    -7.2955 H       1      m1     0.0201
    456 C            0.8408    -8.6364    -6.8847 C       1      m1    -0.0351
    457 C            1.6869    -7.6470   -10.6689 C       1      m1     0.0068
    458 C            2.8033    -8.1723   -10.4540 C       1      m1     0.0023
    459 C            3.9930   -10.8147    -7.0028 C       1      m1    -0.0651
    460 C            3.9699    -9.0126   -10.4387 C       1      m1    -0.0250
    461 H            4.5554    -9.4718    -9.6108 H       1      m1     0.0147
    462 H            4.7473   -10.3737    -7.8734 H       1      m1     0.0174
    463 C            5.3630    -6.7884    -8.2202 C       1      m1     0.0014
    464 C            5.6278    -7.1902    -7.0428 C       1      m1     0.1732
    465 H            6.2600    -8.4530   -10.6933 H       1      m1     0.0211
    466 C            7.4773    -8.5723   -10.8372 C       1      m1    -0.0296
    467 C            7.3839    -8.8102    -6.9483 C       1      m1    -0.0042
    468 C            7.8314    -8.4045    -8.2093 C       1      m1    -0.0221
    469 H            8.1339    -9.4596   -11.2260 H       1      m1     0.0447
    470 C            8.1133    -7.9202    -9.4045 C       1      m1     0.0033
    471 H            9.9064   -11.0117    -7.7529 H       1      m1     0.0514
    472 C           11.2642   -10.9312    -9.4292 C       1      m1     0.0034
    473 C           11.6862    -7.4996    -9.7319 C       1      m1    -0.0051
    474 C           11.6201    -7.1456    -7.1711 C       1      m1    -0.0227
    475 C           11.8861    -9.8926    -9.5697 C       1      m1    -0.0065
    476 C           12.4356    -8.6872    -9.7658 C       1      m1    -0.0035
    477 H           12.8639    -7.2419    -7.1123 H       1      m1     0.0192
    478 C           13.1014   -10.7603    -7.0491 C       1      m1     0.0343
    479 C           13.6517    -8.6950   -11.0233 C       1      m1    -0.0211
    480 H           14.1454    -6.6529    -8.7325 H       1      m1     0.0273
    481 C           14.2206    -9.8036   -10.7756 C       1      m1    -0.0047
    482 C           14.5729   -10.2275    -6.8498 C       1      m1    -0.0065
    483 H           14.9076    -8.3523    -8.3866 H       1      m1     0.0188
    484 C           14.9413    -7.1273    -8.3000 C       1      m1    -0.0353
    485 C           14.8020    -6.7302    -7.0587 C       1      m1     0.0015
    486 H          -14.6853    -5.6228   -11.1533 H       1      m1     0.0201
    487 C          -14.6728    -4.9342    -8.6363 C       1      m1     0.0039
    488 C          -14.3879    -6.3443   -10.5226 C       1      m1    -0.0242
    489 C          -14.1853    -6.0504    -8.9059 C       1      m1    -0.0095
    490 C          -14.1922    -3.5928    -8.1037 C       1      m1    -0.0148
    491 C          -13.5794    -2.4798    -9.0061 C       1      m1     0.0019
    492 C          -13.0338    -2.6365   -10.2903 C       1      m1    -0.0094
    493 C          -12.9614    -3.8688    -6.9549 C       1      m1    -0.0079
    494 C          -11.7077    -3.4205   -10.2026 C       1      m1    -0.0043
    495 C          -11.7700    -4.3198    -7.3386 C       1      m1    -0.0022
    496 C          -11.4477    -4.9582   -10.5787 C       1      m1    -0.0005
    497 C          -10.7358    -5.2702    -7.2468 C       1      m1    -0.0100
    498 C          -10.4656    -2.8835    -9.8540 C       1      m1    -0.0202
    499 C          -10.3331    -5.5877    -9.9089 C       1      m1    -0.0241
    500 C          -10.0195    -5.4376    -8.4568 C       1      m1     0.0057
    501 H           -9.7740    -6.1495   -10.6223 H       1      m1     0.0211
    502 H           -9.4178    -3.3661    -9.5806 H       1      m1     0.0252
    503 C           -8.6114    -6.0182    -8.6367 C       1      m1    -0.0178
    504 H           -8.1979    -6.6192    -9.5884 H       1      m1     0.0234
    505 C           -7.0375    -2.3853    -9.8606 C       1      m1    -0.0194
    506 C           -6.1054    -2.6211   -10.9667 C       1      m1     0.0106
    507 C           -5.9368    -4.1512    -8.2300 C       1      m1    -0.0106
    508 C           -5.9938    -2.6234    -8.8688 C       1      m1     0.0009
    509 C           -4.9617    -3.4903   -10.9528 C       1      m1    -0.0187
    510 H           -4.5816    -3.9804    -9.9563 H       1      m1     0.0173
    511 C           -4.8319    -3.8817    -7.5000 C       1      m1     0.0492
    512 H           -3.7302    -5.1527    -9.3073 H       1      m1     0.0168
    513 C           -3.4931    -4.8245    -7.1149 C       1      m1     0.0269
    514 H           -3.2174    -4.0623   -10.7515 H       1      m1     0.0238
    515 C           -2.8483    -4.4373    -9.8953 C       1      m1    -0.0622
    516 H           -1.8959    -4.8095   -10.2505 H       1      m1     0.0194
    517 C           -2.0730    -3.5458    -8.9655 C       1      m1    -0.0016
    518 C           -1.6671    -3.2396    -7.6614 C       1      m1    -0.0153
    519 C           -1.3726    -2.6249    -9.7780 C       1      m1    -0.0032
    520 C           -0.3655    -3.1590    -7.3796 C       1      m1    -0.0002
    521 C            0.2900    -2.4981    -8.3415 C       1      m1    -0.0068
    522 H            0.2533    -6.0086   -10.3677 H       1      m1     0.0148
    523 H            1.3444    -4.5383    -7.2885 H       1      m1     0.0335
    524 C            4.5088    -3.8380   -10.4566 C       1      m1     0.0014
    525 H            4.5521    -3.7022    -6.4894 H       1      m1     0.0575
    526 C            5.3429    -4.6694    -9.5717 C       1      m1     0.0130
    527 C            5.3919    -6.2743    -9.4869 C       1      m1     0.0015
    528 C            6.2551    -3.4348    -9.4114 C       1      m1    -0.0105
    529 C            6.8990    -3.8795    -7.0348 C       1      m1    -0.0088
    530 C            7.4438    -3.6963    -8.5065 C       1      m1    -0.0016
    531 C            8.6509    -6.5736    -9.5748 C       1      m1    -0.0356
    532 C            8.7154    -3.6605    -8.7821 C       1      m1    -0.0123
    533 H            8.4826    -6.0989   -10.6351 H       1      m1     0.0236
    534 H            8.6406    -5.8956    -8.6713 H       1      m1     0.0205
    535 C            9.9378    -3.6917    -9.4654 C       1      m1    -0.0170
    536 C           10.1693    -2.1763    -9.9935 C       1      m1     0.0037
    537 H           10.0575    -2.8471    -7.2278 H       1      m1     0.0160
    538 C           10.9957    -2.3957    -7.7338 C       1      m1    -0.0133
    539 H           10.4049    -4.7634    -9.4625 H       1      m1     0.0202
    540 C           11.5850    -6.2293   -10.0305 C       1      m1    -0.0033
    541 C           12.1532    -5.1957   -10.9900 C       1      m1    -0.0244
    542 H           12.4269    -4.6660    -7.4319 H       1      m1     0.0221
    543 C           13.4548    -4.9498    -7.8249 C       1      m1    -0.0178
    544 C           13.3809    -4.5758   -10.3597 C       1      m1     0.0028
    545 C           14.1952    -5.7355    -6.8716 C       1      m1    -0.0038
    546 C           14.0597    -4.7762    -9.0216 C       1      m1     0.0006
    547 H           14.7738    -2.0792   -10.7676 H       1      m1     0.0296
    548 H          -15.0395    -3.3341    -7.3080 H       1      m1     0.0199
    549 C          -14.8143     1.8496    -8.7771 C       1      m1     0.0007
    550 C          -14.5805    -1.0429    -7.4054 C       1      m1    -0.0380
    551 C          -14.2592     0.4040    -6.8402 C       1      m1     0.0027
    552 C          -14.3200     1.6965    -7.3491 C       1      m1    -0.0160
    553 C          -13.8375    -1.0289    -8.7729 C       1      m1     0.0049
    554 H          -13.5651     2.3976    -6.7763 H       1      m1     0.0146
    555 C          -12.8476    -0.2302    -9.3573 C       1      m1    -0.0088
    556 C          -11.2535    -0.4995    -9.1673 C       1      m1     0.0030
    557 C          -10.6960    -1.6795    -9.3133 C       1      m1    -0.0028
    558 C          -10.2768     0.5271    -9.4205 C       1      m1    -0.0219
    559 H           -9.2872     0.2193    -9.0066 H       1      m1     0.0175
    560 C           -9.8295     1.5513   -10.3464 C       1      m1     0.0048
    561 C           -9.5731     1.6760    -6.5880 C       1      m1    -0.0040
    562 H           -8.7832    -0.5885    -7.5560 H       1      m1     0.0206
    563 C           -8.3656     1.1340   -11.2055 C       1      m1    -0.0110
    564 H           -7.5941    -1.5699    -9.7825 H       1      m1     0.0240
    565 H           -6.3189     0.4882    -9.1728 H       1      m1     0.0211
    566 C           -6.4913     1.5286    -9.4725 C       1      m1    -0.0222
    567 C           -5.1377    -1.6429    -8.7605 C       1      m1    -0.0068
    568 C           -4.3841    -0.4872    -8.5929 C       1      m1    -0.0042
    569 C           -4.3679     2.0521    -8.2856 C       1      m1    -0.0044
    570 C           -4.2341     0.6865    -8.4593 C       1      m1    -0.0075
    571 C           -0.7353    -1.9349   -10.4866 C       1      m1    -0.0140
    572 C            0.1849     1.3732    -9.5908 C       1      m1    -0.0016
    573 C            0.4919    -1.8256    -9.2558 C       1      m1    -0.0194
    574 C            1.2004     0.5685    -9.4385 C       1      m1    -0.0214
    575 H            1.4708    -1.4361    -9.4288 H       1      m1     0.0184
    576 C            1.4829     0.6708    -7.0715 C       1      m1     0.0021
    577 C            2.0700     0.7610    -8.2317 C       1      m1    -0.0232
    578 H            1.3495     0.5123   -10.5519 H       1      m1     0.0200
    579 H            2.9875    -2.1012    -7.2213 H       1      m1     0.0173
    580 H            2.5366     1.7087    -8.5949 H       1      m1     0.0125
    581 H            4.1896     1.7171   -10.8653 H       1      m1     0.0088
    582 C            5.2665    -0.8847    -6.8667 C       1      m1    -0.0099
    583 H            5.2294     0.5355    -9.8760 H       1      m1     0.0212
    584 C            6.2999    -0.4556    -7.4041 C       1      m1    -0.0091
    585 C            6.3187     0.2559    -9.8644 C       1      m1     0.0003
    586 C            6.8481     0.1785    -8.4049 C       1      m1     0.0007
    587 C            7.1936    -0.1612   -10.9423 C       1      m1    -0.0028
    588 H            7.5566    -2.2638   -10.9096 H       1      m1     0.0196
    589 C            8.2738     0.4554    -7.8445 C       1      m1    -0.0212
    590 H            8.3731     0.1995   -11.1908 H       1      m1     0.0243
    591 H            8.1820     0.0485    -6.9087 H       1      m1     0.0240
    592 C            9.2404     1.0280    -8.5615 C       1      m1     0.0103
    593 C           10.3572     1.5428    -9.2533 C       1      m1    -0.0278
    594 C           10.8660    -1.6458    -8.9925 C       1      m1    -0.0144
    595 H           11.2705     1.9102    -8.8304 H       1      m1     0.0216
    596 H           11.0788    -0.5457    -9.0819 H       1      m1     0.0207
    597 H           12.0571     0.4492    -8.3741 H       1      m1     0.0177
    598 C           12.9369     0.5984    -8.9780 C       1      m1    -0.0212
    599 C           13.0917     0.2884   -10.4460 C       1      m1    -0.0106
    600 C           14.1296     1.2077    -8.7891 C       1      m1     0.0001
    601 H           13.9376     0.7837   -11.1015 H       1      m1     0.0142
    602 H           14.5347    -0.7283    -7.4065 H       1      m1     0.0261
    603 C          -14.4171     3.2379   -10.9426 C       1      m1    -0.0149
    604 C          -14.2053     6.0363   -10.9434 C       1      m1    -0.0058
    605 C          -13.9924     2.3561    -9.9183 C       1      m1    -0.0207
    606 C          -13.0309     5.3795   -11.2585 C       1      m1    -0.0083
    607 H          -12.9845     1.8550    -9.6910 H       1      m1     0.0177
    608 C          -11.8796     5.4043   -10.3167 C       1      m1    -0.0005
    609 C          -11.5173     5.5762    -8.9815 C       1      m1    -0.0044
    610 C          -10.8229     4.5968    -7.9367 C       1      m1    -0.0003
    611 C          -10.6909     3.6245    -7.0848 C       1      m1    -0.0180
    612 H          -11.6296     2.4188    -9.4980 H       1      m1     0.0158
    613 C          -10.6844     2.6989   -10.3000 C       1      m1    -0.0157
    614 C           -9.4615     2.8124    -7.2040 C       1      m1     0.0022
    615 C           -8.2732     3.7759    -6.8727 C       1      m1    -0.0139
    616 C           -8.0756     4.5897    -8.2855 C       1      m1    -0.0070
    617 C           -7.1910     2.2346   -10.5179 C       1      m1     0.0053
    618 C           -7.0275     5.2561    -8.8767 C       1      m1    -0.0140
    619 C           -6.8705     3.4574   -10.5949 C       1      m1    -0.0215
    620 H           -5.9905     3.4986    -6.5657 H       1      m1     0.0232
    621 C           -5.8273     3.7023    -9.6839 C       1      m1     0.0101
    622 C           -5.5801     2.5574    -8.8613 C       1      m1    -0.0036
    623 C           -5.4196     4.8721    -9.2788 C       1      m1    -0.0575
    624 H           -4.7143     4.6985    -8.6551 H       1      m1     0.0238
    625 C           -4.9462     5.9794   -10.2700 C       1      m1     0.2635
    626 C           -3.3537     3.0488    -7.5074 C       1      m1    -0.0038
    627 C           -2.9194     6.3863    -7.5672 C       1      m1     0.0226
    628 C           -2.4881     3.7861    -8.3765 C       1      m1    -0.0061
    629 H           -2.4037     6.1824    -9.9090 H       1      m1     0.0202
    630 C           -2.0117     6.1800    -8.8654 C       1      m1    -0.0212
    631 C           -1.8460     4.6448    -9.0060 C       1      m1    -0.0074
    632 C           -0.6396     2.3714   -10.1885 C       1      m1    -0.0060
    633 C           -0.5291     3.8646    -9.7165 C       1      m1    -0.0069
    634 C           -0.0269     6.2915    -7.4722 C       1      m1     0.0143
    635 C            0.3279     4.5668   -10.5036 C       1      m1    -0.0093
    636 H            2.7265     3.4150    -9.3332 H       1      m1     0.0171
    637 C            2.7793     4.9255   -11.1151 C       1      m1     0.0180
    638 C            3.0291     5.1004    -6.7965 C       1      m1    -0.0003
    639 C            3.3171     4.0281   -10.1152 C       1      m1    -0.0717
    640 C            3.4706     3.8684    -6.9078 C       1      m1    -0.0506
    641 H            4.3847     3.6989    -7.2841 H       1      m1     0.0201
    642 H            4.4742     4.3251    -9.8015 H       1      m1     0.0294
    643 C            4.4148     2.8272   -10.6982 C       1      m1     0.2611
    644 H            6.1291     4.2072    -7.9392 H       1      m1     0.0218
    645 C            6.0902     5.3009    -8.1512 C       1      m1    -0.0243
    646 C            6.8452     5.0288    -9.3062 C       1      m1     0.0010
    647 C            7.5337     4.9742   -10.2849 C       1      m1     0.0231
    648 C            9.6900     5.9058    -6.9548 C       1      m1    -0.0048
    649 H            9.3904     5.9943   -10.8447 H       1      m1     0.0242
    650 C            9.9637     2.1830   -10.4807 C       1      m1     0.0097
    651 H            9.7634     4.1983    -7.7839 H       1      m1     0.0213
    652 C           10.9742     4.7656   -10.8142 C       1      m1     0.0098
    653 H           11.6889     6.0414    -8.3949 H       1      m1     0.0243
    654 C           12.0133     5.0255    -8.2335 C       1      m1    -0.0246
    655 C           12.0541     4.2559   -10.5220 C       1      m1    -0.0254
    656 C           12.8536     5.0110    -9.4086 C       1      m1    -0.0026
    657 C           12.9157     4.9989    -7.1083 C       1      m1     0.0089
    658 H           12.6666     4.1406   -11.3139 H       1      m1     0.0214
    659 C           13.8539     6.1332    -9.5016 C       1      m1    -0.0042
    660 C           14.2582     4.3093    -7.2308 C       1      m1    -0.0111
    661 H           14.5090     4.4084    -8.3767 H       1      m1     0.0217
    662 H           14.5271     3.5031   -10.7743 H       1      m1     0.0179
    663 C           14.8588     6.1938   -10.1983 C       1      m1    -0.0032
    664 C          -14.1028    10.3876    -7.8938 C       1      m1     0.0005
    665 H          -12.0805    10.0062    -9.2525 H       1      m1     0.0145
    666 H          -12.1847     7.7435    -9.6798 H       1      m1     0.0238
    667 C          -11.6882     7.8722    -8.7472 C       1      m1    -0.0186
    668 C          -11.4353     9.4304    -8.3459 C       1      m1    -0.0142
    669 C          -10.9953     6.7874    -8.3238 C       1      m1     0.0029
    670 C          -10.8310    10.1122    -7.4435 C       1      m1    -0.0003
    671 C          -10.1278     6.9029    -7.0619 C       1      m1    -0.0044
    672 H           -8.9524    10.3453   -10.5551 H       1      m1     0.0270
    673 H           -7.8543     7.1608   -10.0254 H       1      m1     0.0357
    674 C           -7.6674     9.9545    -8.2849 C       1      m1     0.0054
    675 C           -7.8117     8.8497    -7.4545 C       1      m1    -0.0087
    676 C           -7.2056     6.7060    -9.2901 C       1      m1     0.1642
    677 C           -7.4507     7.4856    -7.9871 C       1      m1    -0.0311
    678 H           -7.0993     6.3626    -7.6398 H       1      m1     0.0138
    679 O           -5.9533     6.9962   -10.2892 O       1      m1    -0.5056
    680 C           -4.1544    10.0089   -11.1103 C       1      m1     0.0268
    681 H           -3.4460    10.0747    -7.0155 H       1      m1     0.0556
    682 C           -3.4238     9.9000   -10.0241 C       1      m1    -0.0165
    683 H           -3.4691     9.0229    -9.3264 H       1      m1     0.0453
    684 H           -1.4563     7.8245    -9.9015 H       1      m1     0.0278
    685 C           -1.3529    10.5495    -7.2314 C       1      m1     0.2995
    686 O           -1.3127     9.3920    -6.7027 O       1      m1    -0.4815
    687 C           -0.5408     8.5992   -10.1535 C       1      m1     0.0023
    688 C           -0.6852     6.7908    -8.5699 C       1      m1     0.0184
    689 C           -0.1367     9.8010   -10.8662 C       1      m1    -0.0323
    690 C            0.2130     7.7163    -9.2805 C       1      m1     0.0069
    691 H            1.0562     9.8579   -10.4848 H       1      m1     0.0183
    692 C            1.4779     6.8680    -7.7024 C       1      m1     0.0131
    693 C            1.6695     7.4664    -8.7395 C       1      m1    -0.0179
    694 H            2.9274     7.2380    -8.9938 H       1      m1     0.0184
    695 C            2.8773     6.5468    -6.9938 C       1      m1    -0.0086
    696 H            2.7987    10.1763   -10.5155 H       1      m1     0.0132
    697 H            2.8983     9.8653    -7.0930 H       1      m1     0.0206
    698 H            5.5363     9.5621    -8.9152 H       1      m1     0.0152
    699 C            5.4731     7.5921    -8.9143 C       1      m1    -0.0074
    700 C            5.1465     8.6269    -9.7417 C       1      m1    -0.0200
    701 C            5.3249     8.5600   -11.1733 C       1      m1     0.0020
    702 C            5.4605     6.5931    -7.9298 C       1      m1    -0.0002
    703 H            7.7403     9.8945    -8.5354 H       1      m1     0.0202
    704 C            7.8290     9.0307    -7.7003 C       1      m1    -0.0126
    705 C            8.7174     8.0104    -8.1965 C       1      m1     0.0011
    706 C            9.0781     9.2145   -10.3997 C       1      m1    -0.0059
    707 C            9.5093     7.2692    -6.9275 C       1      m1     0.0025
    708 C            9.5840     8.3821    -9.3505 C       1      m1    -0.0031
    709 C            9.4934    10.5576   -10.3247 C       1      m1     0.0037
    710 C           11.0176     7.9973    -8.9498 C       1      m1    -0.0005
    711 C           11.4077     8.6905    -7.5070 C       1      m1    -0.0211
    712 H           11.7973    10.3314   -11.6746 H       1      m1     0.0138
    713 H           11.9259     9.5847    -7.2395 H       1      m1     0.0297
    714 C           12.2227     7.7382    -9.6959 C       1      m1    -0.0024
    715 C           12.4044     7.3231   -11.2779 C       1      m1    -0.0117
    716 C           13.4723     7.4500    -8.8849 C       1      m1    -0.0011
    717 C           14.1616     8.5712    -8.0994 C       1      m1    -0.0032
    718 C           14.1050     8.6500    -6.6815 C       1      m1     0.0033
    719 C           14.5762     9.9353    -8.6533 C       1      m1    -0.0129
    720 H           14.9861     9.6126    -9.9528 H       1      m1     0.0105
    721 H          -13.2068    11.8609    -9.4385 H       1      m1     0.0176
    722 C          -13.8977    14.6051    -6.9375 C       1      m1     0.0014
    723 H          -13.7162    14.8739   -10.8549 H       1      m1     0.0191
    724 C          -13.1725    11.3290    -8.4510 C       1      m1    -0.0249
    725 C          -13.0711    14.0361    -7.9009 C       1      m1     0.0025
    726 C          -12.7211   -15.2848   -10.2065 C       1      m1    -0.0122
    727 C          -12.5481    12.4900    -7.6962 C       1      m1    -0.0131
    728 C          -12.3385    14.8657    -8.9789 C       1      m1    -0.0219
    729 H          -11.5902    11.9619    -8.0543 H       1      m1     0.0191
    730 H          -10.4539    12.0691   -11.0327 H       1      m1     0.0177
    731 H          -10.6277    11.4367    -9.4904 H       1      m1     0.0182
    732 C          -10.0059    12.0679    -9.9683 C       1      m1    -0.0342
    733 H          -10.2155    14.3896    -9.8214 H       1      m1     0.0149
    734 C           -9.7755    13.4637    -9.3018 C       1      m1    -0.0161
    735 C           -9.3005    13.8474    -8.0223 C       1      m1    -0.0060
    736 C           -9.2866    13.8983    -6.7048 C       1      m1    -0.0075
    737 H           -9.2659    11.7231    -7.0756 H       1      m1     0.0189
    738 C           -8.6474    11.2840   -10.2934 C       1      m1    -0.0181
    739 H           -7.2462    11.8074    -8.8598 H       1      m1     0.0213
    740 C           -7.7321    10.9357    -9.0934 C       1      m1    -0.0203
    741 C           -6.1507    14.5149    -8.4806 C       1      m1    -0.0047
    742 C           -5.9815    15.0659    -9.8011 C       1      m1    -0.0284
    743 C           -5.7404    13.8900    -7.1897 C       1      m1    -0.0217
    744 C           -5.4262    13.9160   -10.8949 C       1      m1    -0.0222
    745 H           -5.2047    13.0670   -10.1471 H       1      m1     0.0154
    746 C           -5.0798    11.7580    -6.6324 C       1      m1    -0.0003
    747 C           -4.9795    12.7924    -7.7042 C       1      m1    -0.0190
    748 H           -4.3045    12.7843    -8.6020 H       1      m1     0.0173
    749 C           -3.0036    11.8137   -10.7354 C       1      m1    -0.0153
    750 C           -2.6558    10.9450    -9.7014 C       1      m1     0.0242
    751 C           -1.9953    11.5009    -8.3934 C       1      m1    -0.0694
    752 C           -1.7798    12.8628    -8.2888 C       1      m1    -0.0004
    753 C           -1.5863    14.4387    -8.2680 C       1      m1    -0.0113
    754 H           -1.2390    11.9501    -6.8849 H       1      m1    -0.0137
    755 H            1.4528    14.9625    -7.1987 H       1      m1     0.0492
    756 C            2.3708    14.1264    -7.1819 C       1      m1    -0.0386
    757 C            2.6380    13.7487    -8.6439 C       1      m1     0.0130
    758 C            2.9443    12.4927    -9.2341 C       1      m1    -0.0243
    759 H            2.7091    11.8073    -8.4812 H       1      m1     0.0186
    760 C            3.2739    14.6284    -9.6384 C       1      m1    -0.0221
    761 C            3.4922    13.9312   -10.8174 C       1      m1    -0.0411
    762 C            3.3871    12.3743   -10.6240 C       1      m1     0.0128
    763 H            3.0749    14.5718    -6.6205 H       1      m1     0.0380
    764 H            5.7411    13.8027    -9.2359 H       1      m1     0.0316
    765 H            7.0414    11.9206   -10.9970 H       1      m1     0.0263
    766 C            6.8712    13.5786    -9.6789 C       1      m1     0.0088
    767 C            7.4039    12.8270   -10.6101 C       1      m1    -0.0314
    768 C            8.1388    14.3387    -9.2159 C       1      m1     0.0017
    769 H            9.2751    10.8264    -8.1572 H       1      m1     0.0456
    770 C            9.4221    13.6489    -9.4298 C       1      m1     0.0043
    771 C            9.5829    11.3300    -9.1870 C       1      m1    -0.0187
    772 C           10.4239    12.6083    -8.7685 C       1      m1    -0.0144
    773 C           10.4415    14.3097   -10.1719 C       1      m1    -0.0028
    774 H           10.4780    12.5248    -7.7045 H       1      m1     0.0509
    775 C           11.8417    12.8086    -9.3812 C       1      m1     0.0034
    776 C           11.8212    14.2511    -9.8603 C       1      m1     0.0035
    777 C           12.7414    11.8127    -9.0515 C       1      m1    -0.0017
    778 C           13.0107    15.1560   -10.0890 C       1      m1    -0.0047
    779 C           13.6569    10.9292    -8.7237 C       1      m1    -0.0010
    780 H           14.8362   -15.1559    -3.5473 H       1      m1     0.0517
    781 C          -14.6696   -14.0875    -5.9375 C       1      m1     0.0113
    782 C          -14.1387   -13.2959    -4.8713 C       1      m1     0.0062
    783 C          -12.7200   -13.3394    -4.4618 C       1      m1    -0.0101
    784 H          -12.5996   -13.5180    -3.2835 H       1      m1     0.0308
    785 C          -11.9852   -13.9665    -5.3711 C       1      m1    -0.0004
    786 H          -11.0859   -11.8127    -5.2304 H       1      m1     0.0665
    787 C          -11.2319   -14.6414    -6.1252 C       1      m1    -0.0252
    788 C          -10.9537   -11.2979    -6.3565 C       1      m1    -0.0482
    789 H          -10.7823   -12.1250    -2.4311 H       1      m1     0.0502
    790 H          -10.0873   -14.3608    -4.1575 H       1      m1     0.0239
    791 C           -9.6330   -13.9764    -3.0080 C       1      m1    -0.0157
    792 C           -9.7106   -14.2858    -5.8480 C       1      m1    -0.0041
    793 C           -9.3774   -11.5608    -6.5319 C       1      m1     0.0087
    794 C           -9.3564   -12.9366    -6.1205 C       1      m1    -0.0074
    795 C           -9.6539   -12.0747    -2.5438 C       1      m1    -0.0271
    796 H           -9.3150   -11.2773    -3.2123 H       1      m1     0.0537
    797 C           -8.7472   -15.3010    -5.2044 C       1      m1    -0.0064
    798 C           -8.2171   -14.5342    -2.7272 C       1      m1     0.0027
    799 C           -7.8659   -15.2028    -4.0860 C       1      m1    -0.0042
    800 C           -6.4860   -14.8363    -3.8633 C       1      m1    -0.0214
    801 C           -6.1667   -11.2523    -6.0988 C       1      m1    -0.0036
    802 C           -6.0540   -14.4087    -2.5227 C       1      m1     0.0114
    803 H           -6.2736   -14.6023    -4.8527 H       1      m1     0.0226
    804 C           -5.4549   -12.7252    -6.3666 C       1      m1    -0.0175
    805 C           -4.4945   -13.5284    -6.0113 C       1      m1    -0.0039
    806 C           -3.7949   -14.0520    -3.0156 C       1      m1    -0.0015
    807 C           -3.2939   -13.9027    -5.6121 C       1      m1    -0.0010
    808 C           -3.0203   -14.0833    -4.1249 C       1      m1    -0.0030
    809 C           -1.9349   -14.5979    -6.1312 C       1      m1     0.0088
    810 C           -1.7800   -15.0663    -4.1547 C       1      m1     0.0031
    811 H           -1.6592   -12.7362    -2.4907 H       1      m1     0.0203
    812 C           -1.2172   -15.3230    -2.8512 C       1      m1    -0.0027
    813 C           -1.1780   -11.1872    -6.2512 C       1      m1    -0.0182
    814 C           -0.8435   -14.9099    -5.3215 C       1      m1    -0.0177
    815 C           -0.6737   -12.8318    -2.1715 C       1      m1    -0.0112
    816 H           -0.0233   -11.0233    -6.4587 H       1      m1     0.0381
    817 H           -0.6618   -10.8165    -2.0921 H       1      m1     0.0131
    818 H            0.2264   -14.5617    -5.2568 H       1      m1     0.0549
    819 C            3.3847   -14.9939    -2.5116 C       1      m1    -0.0029
    820 H            3.6607   -11.7456    -3.3152 H       1      m1     0.0287
    821 C            4.1481   -13.8326    -3.1853 C       1      m1     0.0053
    822 C            4.5257   -12.2357    -2.7865 C       1      m1    -0.0418
    823 C            4.9001   -13.9294    -4.1780 C       1      m1    -0.0052
    824 H            5.6307   -11.1819    -5.0317 H       1      m1     0.0170
    825 H            5.2260   -11.8620    -3.3661 H       1      m1     0.0222
    826 C            5.6387   -14.4371    -5.4192 C       1      m1     0.0007
    827 C            6.2951   -13.3514    -6.0348 C       1      m1    -0.0066
    828 C            6.4170   -11.8025    -5.7091 C       1      m1    -0.0312
    829 H            6.5602   -13.8199    -2.6631 H       1      m1     0.0230
    830 C            7.4346   -11.6917    -2.4706 C       1      m1    -0.0205
    831 C            7.7327   -13.6614    -6.4830 C       1      m1     0.0017
    832 H            8.2262   -11.2332    -3.1851 H       1      m1     0.0287
    833 H            8.5340   -13.4214    -4.3627 H       1      m1     0.0290
    834 C            8.7074   -13.6582    -5.3395 C       1      m1     0.0304
    835 C            9.8304   -14.1638    -5.5929 C       1      m1    -0.0291
    836 O           10.2072   -11.4902    -5.2744 O       1      m1    -0.5041
    837 C           10.5406   -13.9720    -3.0869 C       1      m1    -0.0009
    838 C           10.8504   -14.2513    -4.6354 C       1      m1     0.2857
    839 H           12.2501   -12.3430    -2.8450 H       1      m1     0.0190
    840 C           11.8856   -13.3583    -3.0211 C       1      m1     0.0190
    841 O           12.0799   -14.6818    -5.1957 O       1      m1    -0.4245
    842 C           13.0217   -13.9275    -2.5083 C       1      m1     0.0218
    843 H           13.7368   -13.3644    -4.2261 H       1      m1     0.0702
    844 C           14.7079   -12.8211    -4.0321 C       1      m1    -0.0223
    845 C           14.7597   -11.5156    -3.4775 C       1      m1     0.0169
    846 C          -14.5321    -7.4416    -5.9721 C       1      m1    -0.0008
    847 C          -14.4773    -7.9667    -2.4346 C       1      m1     0.0173
    848 C          -13.1993    -6.8649    -5.6484 C       1      m1     0.0088
    849 C          -11.9778    -6.5916    -5.7815 C       1      m1     0.0066
    850 H          -10.9358   -10.0543    -6.1438 H       1      m1     0.0636
    851 O          -11.0441    -9.9208    -3.7571 O       1      m1    -0.4889
    852 C          -10.2566    -9.0899    -3.1302 C       1      m1     0.2861
    853 C           -9.4018    -6.5926    -4.1138 C       1      m1    -0.0098
    854 H           -9.1599    -9.2251    -6.0845 H       1      m1     0.0292
    855 C           -8.7293    -8.8258    -3.5592 C       1      m1    -0.0552
    856 C           -8.7704   -10.2981    -6.1840 C       1      m1    -0.0094
    857 H           -8.4129    -5.9967    -6.4043 H       1      m1     0.0202
    858 C           -8.3817    -7.4040    -3.9361 C       1      m1     0.0040
    859 H           -7.7654   -10.7401    -3.8647 H       1      m1     0.0166
    860 C           -7.5779    -9.5797    -3.9735 C       1      m1    -0.0019
    861 C           -7.4462   -10.5541    -6.1131 C       1      m1    -0.0033
    862 C           -7.0833    -7.2236    -3.0137 C       1      m1    -0.0224
    863 H           -5.9240    -7.7045    -7.0295 H       1      m1     0.0230
    864 C           -5.9827    -9.3081    -3.9328 C       1      m1    -0.0119
    865 C           -5.7734    -8.1632    -3.2410 C       1      m1     0.0096
    866 C           -4.9325   -10.7509    -5.6721 C       1      m1    -0.0054
    867 C           -4.8539    -9.7054    -4.8045 C       1      m1    -0.0052
    868 C           -4.5978    -8.1679    -2.4028 C       1      m1    -0.0044
    869 C           -3.6442   -10.5532    -6.4353 C       1      m1    -0.0123
    870 C           -3.4795    -9.2142    -4.1465 C       1      m1    -0.0106
    871 C           -3.2383    -8.1930    -3.1309 C       1      m1     0.0362
    872 C           -2.3748   -10.7626    -5.6305 C       1      m1     0.0069
    873 C           -2.2188    -9.7106    -4.6503 C       1      m1    -0.0230
    874 C           -2.2348    -6.5079    -5.6123 C       1      m1     0.2609
    875 C           -1.9499    -8.0421    -2.3725 C       1      m1     0.0325
    876 C           -1.2090    -7.2128    -6.4503 C       1      m1    -0.0601
    877 H           -1.3533    -9.3924    -4.0394 H       1      m1     0.0156
    878 H           -1.0363    -8.7668    -2.7014 H       1      m1     0.0047
    879 H           -0.1288    -8.0610    -3.8723 H       1      m1     0.0379
    880 C            0.1252    -7.5647    -6.2097 C       1      m1     0.0270
    881 C            0.3740    -7.8711    -4.7242 C       1      m1    -0.0034
    882 C            1.8920    -6.9815    -2.3284 C       1      m1    -0.0202
    883 C            1.6768    -7.2990    -4.8062 C       1      m1    -0.0100
    884 C            2.0563    -9.2596    -6.5052 C       1      m1     0.0137
    885 H            1.9427    -7.3304    -5.7492 H       1      m1     0.0522
    886 C            2.5336    -7.1888    -3.6848 C       1      m1     0.0248
    887 C            3.2203    -9.6470    -6.2595 C       1      m1    -0.0094
    888 H            3.8210    -8.8840    -6.1233 H       1      m1     0.0359
    889 C            4.0177    -7.4097    -3.7787 C       1      m1    -0.0132
    890 O            4.4166    -6.4215    -6.2353 O       1      m1    -0.4637
    891 C            4.8034    -7.1686    -4.9236 C       1      m1     0.2453
    892 C            4.8898    -8.3004    -3.1024 C       1      m1     0.0473
    893 C            5.8163    -8.0197    -5.0864 C       1      m1    -0.0353
    894 C            5.9282    -8.7254    -3.8525 C       1      m1     0.0050
    895 C            6.6199   -10.4604    -2.4423 C       1      m1    -0.0113
    896 C            6.3952    -7.9682    -6.3805 C       1      m1    -0.0427
    897 C            7.0098    -9.4636    -3.4355 C       1      m1     0.0129
    898 C            7.4288   -11.0088    -5.7793 C       1      m1     0.0308
    899 C            8.2895    -9.3775    -4.3198 C       1      m1    -0.0472
    900 H            8.2539    -8.3949    -4.8190 H       1      m1     0.0299
    901 C            8.1922    -9.9072    -5.9238 C       1      m1    -0.0120
    902 H            8.6742    -7.3331    -2.0707 H       1      m1     0.0352
    903 H            9.1234   -10.3570    -4.2306 H       1      m1     0.0711
    904 H            9.2989    -9.7895    -5.9595 H       1      m1     0.0420
    905 C            9.5407    -7.8985    -2.5167 C       1      m1    -0.0141
    906 C           10.4046    -7.4876    -3.7479 C       1      m1    -0.0237
    907 H           11.0691    -8.0481    -4.2618 H       1      m1     0.0101
    908 H           11.1824   -10.0331    -3.9068 H       1      m1    -0.0176
    909 C           10.9836   -10.4515    -5.1433 C       1      m1     0.2767
    910 H           12.3037   -10.6889    -2.3053 H       1      m1     0.0131
    911 C           12.2359   -10.4742    -5.7968 C       1      m1    -0.0386
    912 C           14.0213    -9.4063    -2.8825 C       1      m1    -0.0043
    913 C           14.0506   -10.3358    -3.9771 C       1      m1    -0.0068
    914 C           14.3888   -10.3117    -5.5031 C       1      m1     0.0072
    915 C           14.7825    -7.4986    -4.8040 C       1      m1    -0.0009
    916 C           14.7624    -8.2076    -3.3767 C       1      m1    -0.0037
    917 C          -14.0105    -5.3009    -2.8700 C       1      m1    -0.0048
    918 C          -12.7669    -5.8294    -3.4566 C       1      m1     0.0044
    919 H          -11.8741    -3.9598    -2.7510 H       1      m1     0.0246
    920 C          -11.7827    -6.0359    -4.2172 C       1      m1     0.0046
    921 C          -10.8997    -3.6702    -2.6410 C       1      m1    -0.0249
    922 H          -10.1571    -3.3476    -5.2394 H       1      m1     0.0215
    923 C          -10.3725    -5.6452    -4.0337 C       1      m1    -0.0030
    924 C           -9.6775    -4.4425    -3.0549 C       1      m1     0.0012
    925 C           -9.1888    -2.8297    -5.0132 C       1      m1    -0.0282
    926 C           -8.4672    -3.8218    -2.9094 C       1      m1    -0.0145
    927 C           -8.1170    -3.2361    -4.1867 C       1      m1     0.0334
    928 C           -6.9366    -2.7278    -3.9710 C       1      m1    -0.0466
    929 C           -6.7271    -5.7791    -3.0452 C       1      m1     0.0080
    930 H           -5.9996    -5.6972    -4.0661 H       1      m1     0.0754
    931 C           -5.7360    -2.7541    -3.7872 C       1      m1     0.2008
    932 O           -4.7972    -3.6252    -4.7486 O       1      m1    -0.4647
    933 C           -3.6391    -3.0118    -3.9890 C       1      m1     0.2609
    934 C           -3.4179    -6.2359    -6.4780 C       1      m1    -0.0600
    935 C           -2.4300    -4.0505    -6.5656 C       1      m1     0.0386
    936 O           -1.7046    -5.9441    -4.4343 O       1      m1    -0.4118
    937 H           -0.6992    -3.6225    -4.5887 H       1      m1     0.0639
    938 H           -0.1642    -4.9248    -6.1829 H       1      m1     0.0515
    939 C            0.4157    -3.3807    -4.5064 C       1      m1    -0.0137
    940 C            0.5356    -4.1533    -6.5427 C       1      m1    -0.0417
    941 C            0.8177    -2.8451    -3.4069 C       1      m1     0.0086
    942 C            1.4921    -3.5358    -5.4662 C       1      m1     0.0152
    943 C            2.8442    -3.0090    -5.1329 C       1      m1     0.0089
    944 H            3.0916    -4.2809    -3.3664 H       1      m1     0.0391
    945 C            3.4848    -2.2210    -6.1188 C       1      m1    -0.0265
    946 C            3.4865    -3.4347    -3.8613 C       1      m1    -0.0109
    947 C            4.9130    -3.0016    -3.6322 C       1      m1     0.0064
    948 O            5.7811    -5.9715    -2.6297 O       1      m1    -0.5268
    949 C            5.6448    -3.3981    -6.5013 C       1      m1     0.0032
    950 C            6.0931    -4.7669    -2.8154 C       1      m1     0.3405
    951 C            6.9418    -4.4362    -3.9934 C       1      m1    -0.0497
    952 H            7.4108    -4.5643    -6.3917 H       1      m1     0.0269
    953 C            7.5482    -3.2899    -4.3186 C       1      m1    -0.0019
    954 C            7.5898    -5.6259    -4.7004 C       1      m1     0.0222
    955 H            8.1515    -6.3843    -4.0434 H       1      m1     0.0322
    956 H            9.7165    -6.7925    -6.1019 H       1      m1     0.0144
    957 C           10.3938    -5.3169    -2.5224 C       1      m1    -0.0118
    958 H           10.9180    -4.4376    -5.1904 H       1      m1     0.0194
    959 C           10.8366    -6.0470    -3.7269 C       1      m1     0.0006
    960 C           10.8521    -6.3641    -6.3411 C       1      m1    -0.0172
    961 C           11.3190    -5.3611    -5.0279 C       1      m1    -0.0227
    962 H           12.0174    -3.6401    -2.9360 H       1      m1     0.0179
    963 C           12.7301    -4.5952    -4.8256 C       1      m1    -0.0017
    964 C           12.9814    -3.8171    -3.5286 C       1      m1    -0.0163
    965 C           13.0352    -2.3768    -4.2205 C       1      m1    -0.0161
    966 C           13.5945    -5.4540    -5.4605 C       1      m1    -0.0044
    967 C           14.0765    -4.3570    -2.6568 C       1      m1    -0.0038
    968 C           14.2776    -6.1858    -4.3855 C       1      m1    -0.0048
    969 C           14.8194    -5.2478    -3.3651 C       1      m1     0.0013
    970 H          -14.4192    -1.9626    -6.8651 H       1      m1     0.0224
    971 H          -13.5581     0.1362    -3.7639 H       1      m1     0.0198
    972 C          -12.6967     0.5648    -4.3041 C       1      m1    -0.0235
    973 C          -11.7375     0.8689    -5.2133 C       1      m1    -0.0021
    974 C          -10.8389     1.0812    -6.0568 C       1      m1    -0.0065
    975 C           -8.8546    -1.7005    -5.7487 C       1      m1     0.0081
    976 C           -8.5156    -0.5103    -6.5478 C       1      m1    -0.0198
    977 H           -8.0898     1.3588    -3.5285 H       1      m1     0.0177
    978 C           -8.2273     1.0229    -6.4012 C       1      m1    -0.0033
    979 C           -7.4452     1.7378    -2.6742 C       1      m1    -0.0146
    980 C           -7.0760     1.8940    -6.2257 C       1      m1     0.0030
    981 C           -6.0418     2.0061    -3.1260 C       1      m1    -0.0061
    982 H           -5.8083     0.7696    -4.7113 H       1      m1     0.0218
    983 C           -5.7984     1.0765    -5.7911 C       1      m1    -0.0344
    984 H           -5.3792     0.1140    -6.4017 H       1      m1     0.0248
    985 C           -4.8732    -1.8217    -2.6794 C       1      m1    -0.0262
    986 C           -4.7149     2.1052    -5.4600 C       1      m1    -0.0036
    987 H           -4.2505    -0.2112    -3.9403 H       1      m1     0.0196
    988 C           -4.0886     2.1959    -4.0826 C       1      m1    -0.0179
    989 C           -3.4354    -2.0412    -2.9785 C       1      m1    -0.0369
    990 C           -3.4052     0.4204    -3.7442 C       1      m1    -0.0094
    991 C           -2.6003     0.2269    -2.2914 C       1      m1    -0.0164
    992 C           -2.3904     0.6804    -4.6188 C       1      m1     0.0324
    993 H           -1.8026     1.2291    -6.6208 H       1      m1     0.0185
    994 C           -1.4468     0.8759    -5.5243 C       1      m1    -0.0164
    995 C            0.0171     0.9663    -5.0857 C       1      m1     0.0264
    996 H            1.7096     0.0514    -4.7959 H       1      m1     0.0207
    997 C            1.2423     0.3583    -5.7426 C       1      m1    -0.0330
    998 C            1.4413    -2.1272    -2.3760 C       1      m1    -0.0227
    999 H            1.8770    -1.3265    -2.9876 H       1      m1     0.0144
   1000 C            4.6921    -1.6466    -5.7722 C       1      m1    -0.0018
   1001 H            4.9573     1.5438    -5.2906 H       1      m1     0.0129
   1002 C            5.3087    -1.9567    -4.4883 C       1      m1     0.0030
   1003 H            6.1202    -0.0407    -4.2197 H       1      m1     0.0138
   1004 C            6.3209    -1.2293    -3.9936 C       1      m1    -0.0345
   1005 H            6.3774    -1.2630    -2.9116 H       1      m1     0.0175
   1006 H            6.7035     1.3384    -3.8342 H       1      m1     0.0141
   1007 C            7.6270     1.9080    -4.2256 C       1      m1    -0.0177
   1008 C            7.5575    -2.0535    -4.5658 C       1      m1     0.0035
   1009 C            8.6481    -1.0787    -5.1824 C       1      m1    -0.0252
   1010 C            8.7406     1.4317    -4.9880 C       1      m1     0.0015
   1011 H            9.0181    -1.7402    -5.9719 H       1      m1     0.0184
   1012 C            9.1677     0.0500    -4.6364 C       1      m1    -0.0016
   1013 C           10.7701     1.4795    -5.9126 C       1      m1    -0.0019
   1014 C           10.7399     0.3104    -5.0804 C       1      m1    -0.0016
   1015 C           11.7281    -2.0315    -6.6407 C       1      m1    -0.0051
   1016 C           12.1699    -0.2217    -4.9232 C       1      m1     0.0024
   1017 C           12.2859    -1.6987    -5.3503 C       1      m1     0.0008
   1018 C           13.2536     1.7109    -4.2506 C       1      m1     0.0013
   1019 C           13.5121     0.4342    -4.5862 C       1      m1    -0.0165
   1020 H           13.9118    -1.9199    -3.5489 H       1      m1     0.0168
   1021 H           14.1068    -0.1213    -3.8205 H       1      m1     0.0161
   1022 C          -15.0253     4.0945    -6.2939 C       1      m1    -0.0113
   1023 C          -14.7815     4.3477    -3.6157 C       1      m1     0.0029
   1024 C          -14.5745     5.4660    -2.5054 C       1      m1    -0.0249
   1025 C          -14.3194     6.5413    -3.0853 C       1      m1     0.0015
   1026 H          -13.5946     3.0546    -5.1045 H       1      m1     0.0187
   1027 H          -14.0206     4.0039    -6.7476 H       1      m1     0.0172
   1028 C          -13.8405     3.2877    -4.0833 C       1      m1    -0.0135
   1029 C          -12.7547     2.5043    -3.4178 C       1      m1    -0.0171
   1030 H          -11.9471     2.2826    -4.0249 H       1      m1     0.0231
   1031 H          -11.5848     2.7939    -6.8980 H       1      m1     0.0168
   1032 H           -8.6376     4.4785    -6.1536 H       1      m1     0.0224
   1033 C           -6.9183     3.1279    -6.9406 C       1      m1    -0.0158
   1034 C           -6.6902     4.2956    -2.1511 C       1      m1     0.0003
   1035 C           -6.3682     5.4946    -4.3683 C       1      m1    -0.0007
   1036 C           -6.4765     4.8830    -3.4286 C       1      m1    -0.0059
   1037 H           -5.8562     6.2415    -6.5177 H       1      m1     0.0196
   1038 C           -5.2475     6.1700    -5.4481 C       1      m1    -0.0106
   1039 C           -4.8516     2.4766    -2.9130 C       1      m1    -0.0040
   1040 C           -3.9147     3.0294    -6.1762 C       1      m1    -0.0088
   1041 C           -3.8098     5.7880    -5.4071 C       1      m1     0.0063
   1042 C           -3.5918     4.3919    -5.4661 C       1      m1    -0.0063
   1043 C           -3.3282     6.2854    -6.4911 C       1      m1     0.0066
   1044 H           -3.3883     2.9266    -4.0513 H       1      m1     0.0620
   1045 H           -1.6660     3.3068    -5.4874 H       1      m1     0.0424
   1046 O           -1.3087     2.5635    -2.8488 O       1      m1    -0.4651
   1047 C           -0.7161     3.4082    -5.7101 C       1      m1    -0.0046
   1048 H           -0.7198     4.8713    -4.2661 H       1      m1     0.0498
   1049 C           -0.4348     4.8255    -5.3212 C       1      m1    -0.0128
   1050 C           -0.2202     5.4954    -6.4229 C       1      m1     0.0110
   1051 C            0.3875     2.3028    -5.4144 C       1      m1     0.0207
   1052 H            2.1327     3.5796    -2.6815 H       1      m1     0.0270
   1053 C            2.8336     2.8049    -2.5575 C       1      m1    -0.0212
   1054 H            3.0825     5.7284    -5.1161 H       1      m1     0.0178
   1055 H            3.1196     3.1801    -6.2629 H       1      m1     0.0249
   1056 C            3.7842     2.3780    -3.5223 C       1      m1    -0.0007
   1057 H            3.3329     4.9885    -3.5455 H       1      m1     0.0147
   1058 C            3.9286     6.0488    -3.4515 C       1      m1    -0.0150
   1059 C            4.7152     2.4328    -4.3564 C       1      m1    -0.0225
   1060 H            5.2896     4.1496    -4.8517 H       1      m1     0.0205
   1061 C            5.5756     5.8433    -3.4047 C       1      m1    -0.0157
   1062 C            5.7526     3.5304    -3.9754 C       1      m1    -0.0370
   1063 H            5.7157     3.2544    -2.9478 H       1      m1     0.0232
   1064 H            6.3024     5.2698    -2.9770 H       1      m1     0.0266
   1065 C            6.2726     6.1471    -4.5246 C       1      m1     0.0033
   1066 C            7.0363     3.1232    -4.5400 C       1      m1     0.0044
   1067 C            7.6740     5.6371    -4.4628 C       1      m1     0.0191
   1068 C            7.9748     4.2005    -4.7859 C       1      m1    -0.0065
   1069 C            9.2167     3.7734    -5.5841 C       1      m1     0.0045
   1070 C            9.5658     2.4026    -5.6237 C       1      m1    -0.0002
   1071 C            9.6606     4.6354    -6.7467 C       1      m1    -0.0188
   1072 C           10.1448     4.7514    -2.5262 C       1      m1    -0.0022
   1073 C           10.3048     6.0928    -2.4968 C       1      m1     0.0239
   1074 C           11.3277     3.8998    -2.8295 C       1      m1     0.0003
   1075 H           11.7549     6.2607    -5.5490 H       1      m1     0.0222
   1076 C           12.3364     4.1399    -3.8656 C       1      m1    -0.0035
   1077 C           12.6440     5.7851    -5.8439 C       1      m1    -0.0209
   1078 C           12.8034     2.9675    -4.1081 C       1      m1     0.0016
   1079 C           13.3169     5.1452    -4.7665 C       1      m1    -0.0011
   1080 C           14.6590     4.4851    -4.9060 C       1      m1     0.0010
   1081 C          -14.8534     8.5316    -5.0128 C       1      m1    -0.0011
   1082 C          -14.0992     7.6665    -3.8936 C       1      m1    -0.0096
   1083 C          -13.9760     9.7164    -5.2531 C       1      m1    -0.0165
   1084 C          -14.1140    10.1271    -6.6077 C       1      m1     0.0025
   1085 H          -13.4279     9.5977    -4.4086 H       1      m1     0.0336
   1086 H          -10.8665     8.4799    -4.8779 H       1      m1     0.0224
   1087 C           -9.9149    10.8910    -6.5715 C       1      m1    -0.0201
   1088 C           -9.8298     9.1268    -3.1885 C       1      m1    -0.0011
   1089 C           -9.9610     9.1375    -4.6528 C       1      m1    -0.0161
   1090 C           -9.4413    10.3974    -5.2386 C       1      m1    -0.0139
   1091 C           -9.4534     6.9808    -5.9573 C       1      m1    -0.0054
   1092 H           -8.4680    10.7514    -5.3675 H       1      m1     0.0151
   1093 C           -8.2335     7.1181    -5.5790 C       1      m1    -0.0080
   1094 H           -7.8905     9.1797    -6.3800 H       1      m1     0.0167
   1095 C           -7.1311     6.9538    -4.7610 C       1      m1    -0.0043
   1096 H           -6.2645     9.5238    -3.8826 H       1      m1     0.0156
   1097 C           -5.6452     7.4652    -4.7182 C       1      m1    -0.0321
   1098 H           -5.4293     8.0847    -5.7158 H       1      m1     0.0263
   1099 C           -5.2572    10.0654    -3.9221 C       1      m1    -0.0251
   1100 H           -5.2086     7.9081    -3.8533 H       1      m1     0.0235
   1101 C           -4.2684    10.0108    -5.0793 C       1      m1    -0.0035
   1102 C           -4.2590    10.4748    -6.4641 C       1      m1    -0.0186
   1103 H           -3.4008     9.6852    -4.4898 H       1      m1     0.0425
   1104 H           -1.7483     7.2806    -3.6641 H       1      m1     0.0417
   1105 C           -0.9606     7.1904    -2.9212 C       1      m1    -0.0383
   1106 C            0.6738     7.2692    -3.4868 C       1      m1     0.0163
   1107 H            1.3291    10.0794    -5.9676 H       1      m1     0.0506
   1108 C            1.7380     7.2415    -3.8386 C       1      m1     0.0015
   1109 C            2.5608    10.4456    -6.0982 C       1      m1    -0.0332
   1110 C            3.0529     6.7869    -4.4792 C       1      m1    -0.0112
   1111 C            2.9434     9.5610    -4.7934 C       1      m1     0.0049
   1112 C            3.5112     8.1853    -5.1950 C       1      m1     0.0040
   1113 C            3.7811    10.4427    -4.0671 C       1      m1     0.0007
   1114 C            3.8146     7.6034    -6.4600 C       1      m1    -0.0034
   1115 C            4.8343     8.7705    -2.6909 C       1      m1     0.0247
   1116 C            5.0211     9.7838    -3.4570 C       1      m1    -0.0087
   1117 C            5.0806     6.9343    -6.4456 C       1      m1    -0.0097
   1118 C            5.9926     7.4991    -5.3890 C       1      m1     0.0032
   1119 C            6.4759     9.7727    -3.9062 C       1      m1    -0.0250
   1120 C            6.5607     8.8113    -5.3111 C       1      m1     0.0096
   1121 H            6.4256    10.8057    -4.0231 H       1      m1     0.0379
   1122 H            7.2658     9.3030    -3.1371 H       1      m1     0.0854
   1123 C            7.2245     9.2211    -6.4188 C       1      m1     0.0302
   1124 C            9.7638     9.9291    -4.4118 C       1      m1     0.2418
   1125 C           10.4007     7.3711    -2.8914 C       1      m1    -0.0087
   1126 C           10.1886     9.9022    -3.0294 C       1      m1    -0.0955
   1127 C            9.9775     8.6943    -2.6118 C       1      m1     0.0608
   1128 H           10.3833    10.7707    -2.3672 H       1      m1     0.0454
   1129 C           10.2742     8.8543    -5.1682 C       1      m1    -0.0459
   1130 C           10.6318     8.2229    -6.4619 C       1      m1     0.0198
   1131 H           11.0807     8.4272    -4.4622 H       1      m1     0.0099
   1132 H           12.7728     8.6473    -5.1451 H       1      m1     0.0154
   1133 C           13.7956     8.7355    -5.5168 C       1      m1    -0.0266
   1134 H           14.7257     8.9102    -2.5118 H       1      m1     0.0208
   1135 C          -14.7815    13.3727    -4.6608 C       1      m1     0.2001
   1136 O          -14.1359    13.0937    -3.2997 O       1      m1    -0.4761
   1137 C          -14.0823    13.5031    -5.9323 C       1      m1    -0.0328
   1138 C          -13.0747    12.5414    -6.2966 C       1      m1    -0.0017
   1139 H          -12.7191    11.8687    -5.4991 H       1      m1     0.0402
   1140 H          -11.7350    15.1809    -6.3829 H       1      m1     0.0260
   1141 H          -10.7215    12.4516    -5.0371 H       1      m1     0.0294
   1142 C          -10.3888    13.3030    -3.2579 C       1      m1     0.0218
   1143 C           -9.9324    13.0783    -4.3860 C       1      m1    -0.0244
   1144 C           -9.4544    14.1155    -5.4768 C       1      m1     0.0006
   1145 H           -6.7996    12.6904    -3.3074 H       1      m1     0.0145
   1146 H           -6.2943    13.9446    -6.2690 H       1      m1     0.0196
   1147 C           -5.8253    12.2492    -2.7395 C       1      m1    -0.0167
   1148 C           -4.9989    11.1004    -2.9292 C       1      m1     0.0060
   1149 H           -2.5271    12.9122    -3.7892 H       1      m1     0.0241
   1150 C           -1.6781    12.7696    -3.1035 C       1      m1    -0.0200
   1151 C           -0.2577    12.8242    -3.7615 C       1      m1     0.0075
   1152 H            0.5376    12.9994    -6.3618 H       1      m1     0.0197
   1153 C            0.8357    12.5415    -3.5750 C       1      m1    -0.0069
   1154 C            1.7533    12.9820    -6.2526 C       1      m1    -0.0167
   1155 C            1.9127    11.6453    -3.3615 C       1      m1     0.0027
   1156 C            2.5157    11.9351    -6.1578 C       1      m1     0.0019
   1157 C            3.3737    11.9802    -3.7256 C       1      m1    -0.0195
   1158 H            3.3285    14.0056    -4.3078 H       1      m1     0.0299
   1159 C            4.0467    13.4694    -4.3396 C       1      m1    -0.0402
   1160 H            3.8515    12.3561    -2.9194 H       1      m1     0.0180
   1161 C            5.0965    13.9059    -5.0374 C       1      m1     0.0041
   1162 H            5.5425    13.4764    -3.1547 H       1      m1     0.0250
   1163 C            5.8983    14.6228    -5.6465 C       1      m1    -0.0223
   1164 C            6.4143    12.8796    -2.7480 C       1      m1    -0.0520
   1165 H            6.9565    14.8252    -5.9201 H       1      m1     0.0315
   1166 H            6.9101    12.4654    -3.5258 H       1      m1     0.0509
   1167 H           10.2012    11.7427    -4.8528 H       1      m1     0.3012
   1168 O            9.4853    11.2787    -5.1559 O       1      m1    -0.6243
   1169 C           14.2735    14.9535    -2.7937 C       1      m1    -0.0636
   1170 C           14.7800    13.7148    -2.5317 C       1      m1     0.2217
   1171 C          -14.5662   -11.8226    -0.6989 C       1      m1     0.2208
   1172 C          -13.5321   -10.8333    -0.7438 C       1      m1    -0.0494
   1173 C          -11.1224   -14.5849     0.1978 C       1      m1     0.0063
   1174 H          -11.5429   -12.6243    -0.9249 H       1      m1     0.0275
   1175 C          -11.0665   -13.6978    -0.8245 C       1      m1    -0.0153
   1176 C          -10.5747   -14.6659    -2.0011 C       1      m1    -0.0008
   1177 H          -10.3597   -11.7669     1.6240 H       1      m1     0.0225
   1178 C           -9.5260   -12.1541     2.1299 C       1      m1    -0.0398
   1179 C           -9.1163   -11.6429    -1.4186 C       1      m1    -0.0046
   1180 C           -8.3231   -11.4627     1.2875 C       1      m1    -0.0002
   1181 H           -7.6465   -13.1964    -1.2276 H       1      m1     0.0231
   1182 C           -7.3006   -13.8047    -1.9911 C       1      m1    -0.0209
   1183 C           -7.2627   -11.1769     1.8433 C       1      m1    -0.0125
   1184 C           -6.5964   -14.9758     0.0750 C       1      m1    -0.0309
   1185 C           -5.5477   -14.1783     0.5915 C       1      m1     0.0036
   1186 H           -5.5465   -12.3301     1.3782 H       1      m1     0.0212
   1187 C           -4.7141   -14.3597    -1.7721 C       1      m1    -0.0176
   1188 C           -4.8179   -13.2336     1.1251 C       1      m1    -0.0227
   1189 H           -4.4289   -10.9479     0.5991 H       1      m1     0.0206
   1190 H           -4.5264   -15.1102    -1.0170 H       1      m1     0.0232
   1191 C           -3.3333   -13.0498     1.3200 C       1      m1     0.0068
   1192 H           -2.1976   -12.0010    -0.4192 H       1      m1     0.0143
   1193 C           -2.3749   -13.0864     0.2480 C       1      m1    -0.0158
   1194 C           -1.4280   -14.3116     0.2667 C       1      m1     0.0068
   1195 C           -0.2708   -14.2286    -2.1604 C       1      m1     0.0030
   1196 C           -0.1617   -12.4856     1.9972 C       1      m1    -0.0015
   1197 C           -0.2901   -11.6622    -1.5238 C       1      m1    -0.0221
   1198 C            0.8518   -12.2628     0.9598 C       1      m1    -0.0188
   1199 C            0.8147   -11.4983    -0.4604 C       1      m1    -0.0011
   1200 C            1.2239   -14.0092    -2.1381 C       1      m1     0.0142
   1201 H            1.6179   -13.8024     1.5830 H       1      m1     0.0174
   1202 C            1.3585   -15.0247     0.9999 C       1      m1    -0.0062
   1203 H            1.6315   -12.2984     1.5734 H       1      m1     0.0180
   1204 C            1.7912   -12.8256    -1.6363 C       1      m1     0.0034
   1205 C            2.2171   -11.8991    -1.0165 C       1      m1    -0.0033
   1206 C            2.0751    15.3350    -2.0245 C       1      m1    -0.0160
   1207 C            3.6772   -12.2475    -0.4210 C       1      m1    -0.0352
   1208 H            4.0485   -13.2935    -0.6090 H       1      m1     0.0245
   1209 C            3.9472    15.3655     1.9369 C       1      m1    -0.0062
   1210 H            3.9980   -11.6118     0.4259 H       1      m1     0.0184
   1211 C            4.5392   -11.5441    -1.3805 C       1      m1    -0.0015
   1212 C            4.8828   -15.2919     0.7219 C       1      m1    -0.0026
   1213 H            6.5508   -12.7977    -1.2305 H       1      m1     0.0253
   1214 C            6.2593   -15.2971     0.9065 C       1      m1    -0.0037
   1215 C            7.0686   -13.0261    -1.9497 C       1      m1    -0.0362
   1216 C            7.5638   -15.1132     1.3357 C       1      m1     0.0064
   1217 C            8.6176   -13.2637    -1.3316 C       1      m1    -0.0021
   1218 C            9.0939   -13.4930    -0.0591 C       1      m1     0.0103
   1219 C            9.4060   -13.5630    -2.2576 C       1      m1     0.0318
   1220 C           10.0067   -13.6647     0.9344 C       1      m1     0.0060
   1221 H           10.7956   -11.6308     1.8344 H       1      m1     0.0149
   1222 C           11.4378   -13.4571     0.3874 C       1      m1     0.0193
   1223 C           12.8120   -13.6784     0.5220 C       1      m1    -0.0305
   1224 H           13.0604   -11.2240     1.9677 H       1      m1     0.0324
   1225 C           13.9666   -13.0677    -1.6965 C       1      m1    -0.0415
   1226 C           13.9917   -13.2952    -0.1817 C       1      m1     0.2238
   1227 C           14.7334   -12.0861    -2.0177 C       1      m1    -0.0333
   1228 O          -14.8394   -12.7986     0.4435 O       1      m1    -0.5138
   1229 H          -13.8670    -7.0953    -0.5974 H       1      m1     0.0709
   1230 C          -13.6610    -7.8277    -1.4289 C       1      m1    -0.0418
   1231 H          -12.7736    -8.1666    -1.4647 H       1      m1     0.0543
   1232 C          -12.6360   -10.1730    -0.6690 C       1      m1     0.0444
   1233 C          -11.9397    -9.4363     0.2347 C       1      m1    -0.0067
   1234 C          -11.1452    -8.7658     1.0990 C       1      m1     0.0419
   1235 C          -11.1048    -6.6618     1.8090 C       1      m1     0.2459
   1236 C          -10.5655    -7.9862     2.0277 C       1      m1    -0.0674
   1237 H          -10.6526    -8.6796    -1.9974 H       1      m1    -0.0070
   1238 H           -9.2827   -10.0788    -0.0729 H       1      m1     0.0181
   1239 C           -8.6809   -11.0081    -0.1774 C       1      m1    -0.0257
   1240 H           -7.7324    -9.1589    -0.9035 H       1      m1     0.0169
   1241 H           -7.2678    -7.5877    -1.9784 H       1      m1     0.0196
   1242 C           -7.2265    -9.1717    -0.0249 C       1      m1    -0.0280
   1243 C           -6.9215    -7.9759     0.2910 C       1      m1    -0.0146
   1244 C           -6.3111   -10.2048     0.8658 C       1      m1    -0.0075
   1245 H           -5.9589    -8.3499     1.9120 H       1      m1     0.0198
   1246 C           -5.2609    -7.4773     1.9975 C       1      m1    -0.0123
   1247 C           -4.9236   -10.4561     1.2892 C       1      m1    -0.0292
   1248 H           -4.8338    -8.1348    -1.2331 H       1      m1     0.0242
   1249 C           -3.9126    -9.5610     2.0877 C       1      m1    -0.0193
   1250 C           -4.0057    -8.0690     1.6198 C       1      m1    -0.0128
   1251 H           -3.7267    -7.9105     0.6482 H       1      m1     0.0241
   1252 H           -2.4865   -10.4686     0.5350 H       1      m1     0.0173
   1253 H           -2.8123    -7.2504    -0.7331 H       1      m1     0.0619
   1254 C           -2.6009   -10.5337     1.6105 C       1      m1    -0.0235
   1255 C           -2.0276    -7.7626    -0.9598 C       1      m1    -0.0299
   1256 C           -1.2213   -10.2249     2.0302 C       1      m1    -0.0015
   1257 C           -0.6749    -7.5140    -0.6048 C       1      m1     0.0238
   1258 C            0.0548    -7.2918     1.6193 C       1      m1    -0.0017
   1259 C            0.0136    -9.8987     2.0167 C       1      m1    -0.0184
   1260 C            0.4167    -8.5806    -0.4284 C       1      m1    -0.0163
   1261 C            0.5525    -8.6168     0.9614 C       1      m1    -0.0099
   1262 H            1.0839    -6.3226    -2.1003 H       1      m1     0.0403
   1263 H            1.6305    -8.7197     1.4295 H       1      m1     0.0201
   1264 H            2.2423    -9.3876    -1.5417 H       1      m1     0.0165
   1265 C            3.0083    -7.1607    -1.3223 C       1      m1    -0.0177
   1266 C            3.1681    -8.6467    -1.6526 C       1      m1    -0.0157
   1267 H            3.9600    -6.4518    -1.4770 H       1      m1     0.0714
   1268 H            4.0975   -10.0182     0.7148 H       1      m1     0.0178
   1269 C            4.5525    -9.0301    -1.9779 C       1      m1     0.0007
   1270 C            4.5223    -9.0676     1.1715 C       1      m1    -0.0204
   1271 C            5.1391    -7.9222     0.6729 C       1      m1     0.0006
   1272 C            5.3349   -10.2936    -1.6338 C       1      m1    -0.0056
   1273 C            5.8088    -6.8031     0.2999 C       1      m1     0.0108
   1274 H            7.2914    -6.8799     2.2205 H       1      m1     0.0163
   1275 H            7.8268   -10.2760    -0.7336 H       1      m1     0.0277
   1276 H            8.4801   -10.6938     0.8004 H       1      m1     0.0167
   1277 C            8.5071   -10.0025    -0.0308 C       1      m1    -0.0393
   1278 H            9.8154    -7.8637     1.6874 H       1      m1     0.0119
   1279 C            9.4551    -6.6701     1.8471 C       1      m1    -0.0149
   1280 C            9.7406    -9.3516    -0.3054 C       1      m1    -0.0119
   1281 C           10.2288    -8.8563    -1.5935 C       1      m1    -0.0178
   1282 H           10.5579    -9.1966     0.4433 H       1      m1     0.0098
   1283 H           11.1538    -9.6086    -1.9120 H       1      m1     0.0150
   1284 H           12.1511    -8.1812     0.8732 H       1      m1     0.0197
   1285 H           12.6848   -10.4332     0.2910 H       1      m1     0.0157
   1286 C           12.8432    -7.5857     0.1033 C       1      m1    -0.0341
   1287 C           13.0763    -9.7719    -1.8734 C       1      m1    -0.0200
   1288 C           13.2406    -9.7306    -0.4473 C       1      m1    -0.0421
   1289 C           13.2917    -6.9573     1.5364 C       1      m1     0.0051
   1290 H           13.4980    -8.0042    -0.6929 H       1      m1     0.0235
   1291 H           14.3042    -9.7015    -0.0525 H       1      m1     0.0244
   1292 C           14.4604    -7.6970     1.6374 C       1      m1    -0.0054
   1293 H           14.5926    -8.0901     0.7518 H       1      m1     0.0247
   1294 C          -14.8760    -3.5723     1.8058 C       1      m1     0.0267
   1295 C          -14.1545    -4.5863    -1.4578 C       1      m1     0.0274
   1296 C          -13.7533    -4.2088     1.6712 C       1      m1    -0.0734
   1297 C          -13.7101    -4.6909    -0.2583 C       1      m1    -0.0678
   1298 C          -13.0892    -5.0214     0.8195 C       1      m1     0.2812
   1299 O          -12.3886    -6.3326     1.0180 O       1      m1    -0.5326
   1300 C          -10.3329    -2.8622    -1.6622 C       1      m1     0.0013
   1301 H           -9.8048    -2.4247     0.3718 H       1      m1     0.0189
   1302 H           -8.8270    -5.9892     0.6337 H       1      m1     0.0231
   1303 H           -7.9275    -6.0675    -0.9336 H       1      m1     0.0229
   1304 C           -7.9575    -5.7303     0.1692 C       1      m1    -0.0371
   1305 C           -7.5745    -4.2138     0.4150 C       1      m1    -0.0008
   1306 C           -7.4607    -3.2971     1.6568 C       1      m1    -0.0074
   1307 C           -7.3338    -4.6280    -2.2592 C       1      m1     0.0090
   1308 C           -7.1315    -3.9063    -0.8780 C       1      m1     0.0147
   1309 C           -6.7731    -6.6336     0.7685 C       1      m1     0.0066
   1310 C           -6.6004    -2.1792     1.9629 C       1      m1    -0.0042
   1311 C           -5.8791    -3.1618    -0.4020 C       1      m1    -0.0387
   1312 C           -5.7426    -6.1314     1.6245 C       1      m1    -0.0075
   1313 C           -4.3133    -3.3360    -0.5145 C       1      m1     0.2977
   1314 O           -3.7201    -4.3579    -1.0136 O       1      m1    -0.4346
   1315 H           -3.7556    -2.4975     0.0571 H       1      m1    -0.0216
   1316 H           -1.1653    -5.7580     0.6894 H       1      m1     0.0429
   1317 C           -0.6422    -6.6351     0.5869 C       1      m1    -0.0201
   1318 H           -0.2368    -3.6213    -0.6622 H       1      m1     0.0397
   1319 C            0.9180    -3.6301    -0.6588 C       1      m1    -0.0183
   1320 C            1.2401    -5.0690    -0.0225 C       1      m1    -0.0050
   1321 C            1.9681    -2.7051    -1.1244 C       1      m1    -0.0192
   1322 C            2.0646    -5.8729     0.7056 C       1      m1    -0.0080
   1323 C            2.8009    -5.1897     1.6638 C       1      m1    -0.0051
   1324 H            2.9563    -3.0670    -0.8494 H       1      m1     0.0149
   1325 H            4.4637    -3.7987    -1.4995 H       1      m1     0.0394
   1326 H            5.0919    -6.1014    -0.1409 H       1      m1     0.0368
   1327 C            5.2418    -3.5154    -2.2073 C       1      m1    -0.0926
   1328 H            5.9201    -2.6706    -1.9668 H       1      m1     0.0252
   1329 C            6.7809    -6.3158     1.3111 C       1      m1    -0.0188
   1330 H            6.8836    -4.5129     0.3537 H       1      m1     0.0298
   1331 C            7.4960    -5.2369     0.9157 C       1      m1    -0.0112
   1332 H            8.7525    -5.8165    -1.5163 H       1      m1     0.0286
   1333 C            8.8478    -4.6189     1.3033 C       1      m1    -0.0103
   1334 H            9.0045    -2.0713     2.1353 H       1      m1     0.0570
   1335 H            9.1505    -3.6575     0.6897 H       1      m1     0.0229
   1336 C            9.8134    -5.2199    -1.2445 C       1      m1    -0.0192
   1337 C            9.7753    -5.7805     0.7997 C       1      m1     0.0038
   1338 C           10.8691    -5.6420    -0.2150 C       1      m1    -0.0002
   1339 C           10.8506    -2.6366     0.9153 C       1      m1    -0.0072
   1340 C           11.6225    -3.0397    -0.1697 C       1      m1     0.0031
   1341 H           12.1282    -4.6909    -1.6529 H       1      m1     0.0183
   1342 C           12.2211    -6.2302    -0.4931 C       1      m1    -0.0152
   1343 C           12.3509    -3.7052    -1.0115 C       1      m1    -0.0238
   1344 H           12.9051    -5.9046    -1.4008 H       1      m1     0.0169
   1345 C           13.2587    -2.7321     1.7959 C       1      m1    -0.0042
   1346 C           13.7195    -3.5276    -0.5001 C       1      m1     0.0063
   1347 C           14.2902    -2.9569     0.7846 C       1      m1    -0.0084
   1348 C           14.6138    -4.0907    -1.4109 C       1      m1    -0.0078
   1349 H          -14.2980     2.1853     1.1003 H       1      m1     0.0207
   1350 C          -13.8895     0.2439     1.9605 C       1      m1    -0.0161
   1351 C          -13.3103     2.0371     0.8430 C       1      m1    -0.0399
   1352 C          -13.2961     0.2826     0.9299 C       1      m1    -0.0004
   1353 C          -12.9528     1.9666    -0.6159 C       1      m1     0.0020
   1354 C          -12.2180    -0.6907     0.5102 C       1      m1     0.0003
   1355 C          -12.1617    -1.7211     1.5664 C       1      m1    -0.0021
   1356 H          -11.3935    -0.6969    -1.4742 H       1      m1     0.0203
   1357 C          -11.4617    -0.9987    -0.4432 C       1      m1    -0.0167
   1358 C          -10.3776    -2.0062    -0.5475 C       1      m1    -0.0216
   1359 H           -9.8386    -0.5099     2.3638 H       1      m1     0.0249
   1360 H           -8.5902     0.0199    -2.4057 H       1      m1     0.0155
   1361 H           -8.0183     0.8488    -0.6967 H       1      m1     0.0195
   1362 C           -7.6601     0.4731    -1.6248 C       1      m1    -0.0335
   1363 C           -6.8991    -0.7634     2.2533 C       1      m1    -0.0002
   1364 C           -6.3034    -0.1173    -1.1677 C       1      m1     0.0007
   1365 C           -6.1390     0.1919     1.3426 C       1      m1    -0.0064
   1366 C           -5.7313    -2.1035     0.6006 C       1      m1    -0.0232
   1367 C           -5.5362    -1.0789    -1.8901 C       1      m1    -0.0021
   1368 C           -5.4177    -0.6454     0.2342 C       1      m1    -0.0195
   1369 C           -5.2898     1.2632     1.8045 C       1      m1    -0.0098
   1370 H           -4.2380    -0.7680     0.3203 H       1      m1     0.0154
   1371 C           -3.1759     0.5017    -0.9639 C       1      m1    -0.0059
   1372 H           -3.0467     2.3976    -0.7239 H       1      m1     0.0359
   1373 C           -2.4968     1.5392    -0.0423 C       1      m1    -0.0085
   1374 C           -2.1545    -1.3339    -2.2844 C       1      m1     0.0174
   1375 H           -1.6122     0.9693    -2.3103 H       1      m1     0.1091
   1376 H           -0.4311    -0.2389     1.2065 H       1      m1     0.0198
   1377 C            0.3287     0.6193     1.2004 C       1      m1    -0.0098
   1378 C            0.2438     1.8734     0.1806 C       1      m1    -0.0069
   1379 C            1.3645     1.7047    -0.8482 C       1      m1    -0.0046
   1380 C            1.5173     0.5438     1.5546 C       1      m1    -0.0009
   1381 C            2.6315     1.8304    -1.5378 C       1      m1     0.0116
   1382 C            2.5529    -0.1338     1.7375 C       1      m1     0.0364
   1383 H            3.0043    -0.3845    -1.7411 H       1      m1     0.0172
   1384 C            3.5945     0.6523    -1.3933 C       1      m1    -0.0592
   1385 C            3.8143    -0.6855     2.2205 C       1      m1    -0.1129
   1386 H            4.1182     0.9082    -0.5087 H       1      m1     0.0264
   1387 H            4.1956     0.5312    -2.1841 H       1      m1     0.0219
   1388 C            4.8811    -1.0133     2.1386 C       1      m1     0.2804
   1389 C            6.0418     1.0570     1.6651 C       1      m1    -0.0634
   1390 O            6.2513    -1.5344     2.0854 O       1      m1    -0.5163
   1391 C            6.7993    -0.0963     1.6731 C       1      m1     0.2008
   1392 C            7.7939     1.6649     0.0603 C       1      m1    -0.0066
   1393 C            8.1365    -0.3937     1.0777 C       1      m1     0.0083
   1394 C            8.7121     0.4741     0.1642 C       1      m1    -0.0050
   1395 C            9.1001    -1.4117     1.2141 C       1      m1     0.0121
   1396 C           10.0597     0.6537    -0.4571 C       1      m1     0.0066
   1397 C           10.3498    -1.3068     0.5823 C       1      m1     0.0071
   1398 C           10.5997     2.0166    -1.0706 C       1      m1    -0.0025
   1399 C           11.0247    -0.2435    -0.2767 C       1      m1    -0.0215
   1400 H           12.0102    -0.1053    -0.5358 H       1      m1     0.0193
   1401 H          -14.6751     6.3770    -0.3964 H       1      m1     0.0122
   1402 H          -14.0953     3.9393     2.3258 H       1      m1     0.0156
   1403 H          -12.5138     2.4129     1.4942 H       1      m1     0.0226
   1404 H          -13.2853     4.9064     0.4715 H       1      m1     0.0170
   1405 C          -12.8064     2.4760    -1.7513 C       1      m1    -0.0016
   1406 C          -12.5138     6.5416     0.1073 C       1      m1     0.0085
   1407 C          -12.2427     5.2086     0.4870 C       1      m1    -0.0206
   1408 C          -11.0873     4.3742     1.2420 C       1      m1     0.0005
   1409 C          -10.0684     4.3612     0.6038 C       1      m1    -0.0035
   1410 H           -9.9813     4.0200    -1.6907 H       1      m1     0.0231
   1411 H           -9.4166     2.4568    -0.6853 H       1      m1     0.0186
   1412 C           -9.0510     3.3898    -1.4766 C       1      m1    -0.0278
   1413 C           -8.8714     4.3206    -0.2522 C       1      m1    -0.0047
   1414 H           -8.4188     2.2747     1.1457 H       1      m1     0.0188
   1415 C           -7.6885     3.1791    -2.1831 C       1      m1     0.0051
   1416 C           -7.4779     4.3911     0.3350 C       1      m1     0.0080
   1417 C           -7.4149     3.0066     0.9504 C       1      m1    -0.0135
   1418 H           -7.4807     5.8728    -1.1466 H       1      m1     0.0186
   1419 C           -6.7060     5.0385    -0.7733 C       1      m1    -0.0134
   1420 C           -5.9758     2.6022     1.5512 C       1      m1     0.0008
   1421 C           -5.2297     5.3834    -0.1462 C       1      m1     0.0057
   1422 C           -4.8378     3.3579     1.7645 C       1      m1     0.0041
   1423 C           -4.5426     4.8502     1.0308 C       1      m1    -0.0019
   1424 H           -4.8130     2.3915    -1.6698 H       1      m1     0.0241
   1425 C           -3.3538     5.0353     0.8085 C       1      m1    -0.0036
   1426 C           -1.9380     5.0315     0.6426 C       1      m1     0.0000
   1427 C           -1.2795     3.9450     0.3625 C       1      m1    -0.0109
   1428 C           -1.2264     2.6892    -0.2247 C       1      m1    -0.0218
   1429 C           -0.8764     5.8200    -2.1477 C       1      m1     0.0235
   1430 C           -0.9049     4.6614    -1.7273 C       1      m1    -0.0488
   1431 C           -0.7820     5.7429     1.5693 C       1      m1     0.0004
   1432 C           -0.8310     3.3666    -1.6523 C       1      m1     0.2273
   1433 H            1.2142     2.5381     0.6753 H       1      m1     0.0210
   1434 H            1.4912     5.2247     0.0790 H       1      m1     0.0171
   1435 H            1.4014     4.3985     2.2711 H       1      m1     0.0226
   1436 C            2.6586     5.2518    -0.0233 C       1      m1    -0.0205
   1437 C            3.0772     3.1794     1.2961 C       1      m1    -0.0034
   1438 C            3.2749     5.9442    -1.0025 C       1      m1    -0.0043
   1439 C            3.5088     4.1771     0.2849 C       1      m1     0.0018
   1440 C            3.9842     2.3356     2.0530 C       1      m1    -0.0010
   1441 C            4.8804     4.1395    -0.0138 C       1      m1    -0.0239
   1442 H            4.8549     6.3031     2.3614 H       1      m1     0.0194
   1443 H            5.5864     4.6893    -0.5560 H       1      m1     0.0193
   1444 C            5.3536     2.3021     1.4806 C       1      m1     0.0100
   1445 C            5.6863     3.0004     0.2259 C       1      m1    -0.0102
   1446 C            7.2110     2.7668    -0.1519 C       1      m1    -0.0003
   1447 H            7.2914     4.5245     1.4717 H       1      m1     0.0219
   1448 H            7.3134     4.3758    -1.7245 H       1      m1     0.0246
   1449 C            7.9310     3.8491    -0.9979 C       1      m1    -0.0174
   1450 C            9.3663     4.4214    -1.3013 C       1      m1     0.0111
   1451 C            9.3893     4.9228     1.6001 C       1      m1     0.0034
   1452 C            9.3208     4.9456     0.0826 C       1      m1    -0.0000
   1453 C           10.5936     5.8829     1.5701 C       1      m1     0.0004
   1454 C           11.3965     2.9303    -1.6501 C       1      m1    -0.0140
   1455 C           11.5247     4.8937     1.3734 C       1      m1    -0.0110
   1456 H           12.6884     3.2201    -1.4903 H       1      m1     0.0148
   1457 H           13.5172     4.5401     1.4974 H       1      m1     0.0121
   1458 H           13.8673     1.2971     2.0332 H       1      m1     0.0127
   1459 C           14.2060     6.5331     2.0757 C       1      m1    -0.0315
   1460 H           14.4157     6.5527     1.0949 H       1      m1     0.0146
   1461 H           14.8149     5.5782    -1.9642 H       1      m1     0.0174
   1462 C          -14.7939    10.5336    -0.9598 C       1      m1     0.1505
   1463 C          -13.6417     6.9005    -0.4941 C       1      m1    -0.0241
   1464 C          -13.8624     8.3192    -0.7951 C       1      m1     0.0244
   1465 C          -12.4962     8.8087    -1.4403 C       1      m1     0.0190
   1466 C          -11.1437     8.5891    -0.8762 C       1      m1     0.0081
   1467 C          -11.1020     7.5075     0.0971 C       1      m1    -0.0041
   1468 C          -10.3393     7.3402     1.0718 C       1      m1    -0.0009
   1469 C           -9.9237     9.0829    -1.7542 C       1      m1    -0.0180
   1470 H           -9.0884     9.6294    -1.3499 H       1      m1     0.0177
   1471 H           -8.1045     9.0623     0.1578 H       1      m1     0.0148
   1472 C           -7.7379     8.7164     1.4345 C       1      m1    -0.0167
   1473 C           -7.4234     9.9887     2.2384 C       1      m1     0.0050
   1474 C           -4.9350     6.6599    -0.0782 C       1      m1    -0.0039
   1475 H           -4.9745     8.6843     0.5156 H       1      m1     0.0190
   1476 C           -4.6322     7.8974    -0.3464 C       1      m1    -0.0167
   1477 C           -3.4839     8.9331    -0.6566 C       1      m1    -0.0115
   1478 C           -3.1268    10.0426    -1.5591 C       1      m1     0.0013
   1479 C           -1.5625    10.2608    -1.7162 C       1      m1    -0.0207
   1480 H           -0.7476     8.2503     0.9490 H       1      m1     0.0174
   1481 H           -1.1598     8.0680    -2.2967 H       1      m1     0.0266
   1482 H           -0.9133     9.8983    -0.9870 H       1      m1     0.0190
   1483 C           -0.3199     7.0865     1.1137 C       1      m1    -0.0194
   1484 C            0.8952     7.9680     1.7639 C       1      m1    -0.0065
   1485 H            1.0801     9.8932     0.4455 H       1      m1     0.0197
   1486 C            1.7371     9.3419    -0.0981 C       1      m1    -0.0177
   1487 C            1.8685    10.3883    -1.0585 C       1      m1    -0.0052
   1488 C            1.8896    11.0286    -2.0428 C       1      m1    -0.0079
   1489 C            2.2967     7.8622     1.5110 C       1      m1     0.0006
   1490 C            2.8841     8.5106     0.3547 C       1      m1    -0.0168
   1491 C            3.8931     6.6786    -2.0948 C       1      m1     0.0055
   1492 H            3.8424     8.8926     0.3757 H       1      m1     0.0211
   1493 C            4.9105     7.8006    -1.8762 C       1      m1    -0.0470
   1494 C            5.9522     7.0967     0.1173 C       1      m1    -0.0423
   1495 C            6.3015     7.3741    -1.2414 C       1      m1     0.2206
   1496 C            7.1439     8.4493     2.0595 C       1      m1     0.0156
   1497 C            7.3302     7.6833     0.8483 C       1      m1    -0.0359
   1498 O            7.7462     7.7926    -1.5940 O       1      m1    -0.5180
   1499 C            8.3370     7.7604    -0.2311 C       1      m1     0.2369
   1500 C            9.7950     7.7636    -0.1158 C       1      m1    -0.0315
   1501 H           10.5980     7.6577     2.1771 H       1      m1     0.0545
   1502 C           10.4559     8.4612    -1.2289 C       1      m1     0.0157
   1503 C           10.5401     7.4139     1.0522 C       1      m1    -0.0120
   1504 C           11.9536     8.6323    -0.5202 C       1      m1    -0.0192
   1505 C           12.0764     7.8562     0.8103 C       1      m1    -0.0281
   1506 H           12.6898     8.3062    -1.4731 H       1      m1     0.0063
   1507 C           12.2196     9.9776    -0.1797 C       1      m1    -0.0059
   1508 H           12.8365     8.4490     1.2830 H       1      m1     0.0215
   1509 H           12.7056     6.9428     0.3653 H       1      m1     0.0134
   1510 H           14.4956     9.0698     1.4490 H       1      m1     0.0371
   1511 H           14.1398     8.5861    -0.8159 H       1      m1     0.0219
   1512 C           14.9403     8.9994    -1.3613 C       1      m1    -0.0719
   1513 C           15.0074    11.8529    -1.1312 C       1      m1     0.1652
   1514 O          -14.3311    11.3488     0.2713 O       1      m1    -0.4084
   1515 H          -10.8997    14.0937     0.4943 H       1      m1     0.0292
   1516 C          -11.0839    14.9445    -0.1508 C       1      m1    -0.0116
   1517 C          -10.8655    14.7464    -1.5371 C       1      m1     0.0184
   1518 C          -10.8014    13.4603    -2.0665 C       1      m1    -0.0140
   1519 H          -11.1886    12.7166    -1.4285 H       1      m1     0.0523
   1520 H           -8.9881    11.7121    -1.5388 H       1      m1     0.0237
   1521 C           -7.9995    12.0790    -1.1402 C       1      m1    -0.0463
   1522 H           -7.6636    12.9206    -1.5096 H       1      m1     0.0221
   1523 C           -7.6390    11.5544     0.1320 C       1      m1     0.0045
   1524 H           -7.0490    14.9889     0.7315 H       1      m1     0.0166
   1525 C           -6.8906    11.2611     1.2641 C       1      m1    -0.0210
   1526 H           -5.8033    11.6727     1.2265 H       1      m1     0.0201
   1527 H           -5.8732    14.0827    -1.5143 H       1      m1     0.0169
   1528 C           -5.2430    13.1933    -1.9141 C       1      m1    -0.0176
   1529 H           -5.1214    13.3855     1.3976 H       1      m1     0.0169
   1530 C           -4.0167    11.2178    -1.7215 C       1      m1    -0.0039
   1531 C           -3.8703    12.6472    -1.6543 C       1      m1     0.0049
   1532 H           -3.6437    14.0972     0.3274 H       1      m1     0.0192
   1533 C           -3.2058    13.3505    -0.5387 C       1      m1    -0.0181
   1534 C           -1.8504    14.2153    -2.3275 C       1      m1    -0.0040
   1535 C           -2.0292    14.0535    -0.7238 C       1      m1    -0.0032
   1536 C           -1.4998    11.4057    -2.3964 C       1      m1     0.0121
   1537 C           -1.1253    15.0942    -0.0508 C       1      m1    -0.0052
   1538 H           -0.1265    11.7484     2.4540 H       1      m1     0.0204
   1539 C            0.2319    14.7196     0.9503 C       1      m1    -0.0104
   1540 H            0.3046    13.9131     0.0672 H       1      m1     0.0191
   1541 H            1.9600    14.3484    -1.8261 H       1      m1     0.0192
   1542 C            2.3404    15.0019     0.1585 C       1      m1    -0.0042
   1543 C            3.7811    14.6657    -0.0907 C       1      m1    -0.0016
   1544 H            3.6359    12.8213    -1.2847 H       1      m1     0.0125
   1545 C            4.1877    13.1727    -0.2812 C       1      m1    -0.0171
   1546 C            4.9069    12.6208     0.6292 C       1      m1    -0.0168
   1547 C            4.9659    13.0174     2.0859 C       1      m1    -0.0004
   1548 H            5.1032    11.5331     0.3835 H       1      m1     0.0145
   1549 C            6.8362    12.6003    -1.6484 C       1      m1     0.0359
   1550 C            7.2307    12.2513    -0.5660 C       1      m1    -0.0320
   1551 H            7.1227    11.2985    -0.0125 H       1      m1     0.0253
   1552 C            7.5476    14.2945     0.6046 C       1      m1    -0.0026
   1553 C            8.1864    13.2078     0.0746 C       1      m1     0.0358
   1554 C            9.6017    12.7071     0.3565 C       1      m1    -0.0655
   1555 C            9.9409    12.2307     1.8524 C       1      m1     0.0133
   1556 C           10.5743    13.1147    -0.2755 C       1      m1     0.1956
   1557 O           10.9326    14.4008    -1.2997 O       1      m1    -0.4933
   1558 C           12.0419    12.4954    -0.2411 C       1      m1    -0.0046
   1559 C           12.1619    11.1916    -0.1908 C       1      m1    -0.0019
   1560 C           12.2823    14.2445    -1.6644 C       1      m1     0.2642
   1561 C           12.9132    13.2227    -1.0177 C       1      m1    -0.0305
   1562 C           13.0694    15.3199    -2.3433 C       1      m1    -0.0042
   1563 C           14.1406    12.9495    -1.5212 C       1      m1    -0.0624
   1564 H          -13.9416   -15.1278     2.6591 H       1      m1     0.0316
   1565 H           14.5350   -13.5653     6.2833 H       1      m1     0.0194
   1566 H          -13.7254   -13.7164     1.9052 H       1      m1     0.0935
   1567 C          -14.1570   -14.0602     2.8743 C       1      m1    -0.0434
   1568 H          -13.1009   -13.8393     3.4879 H       1      m1     0.0121
   1569 H          -11.8071   -12.3929     3.8502 H       1      m1     0.0247
   1570 H          -11.0470   -11.0169     5.1899 H       1      m1     0.0640
   1571 C          -11.0434   -12.0474     4.4474 C       1      m1    -0.0593
   1572 H          -10.5231   -14.8537     6.6224 H       1      m1     0.0493
   1573 H          -10.5591   -12.8000     5.0413 H       1      m1     0.0664
   1574 C          -10.0546   -11.6952     3.4462 C       1      m1     0.0069
   1575 H           -9.5068   -13.4028     2.3795 H       1      m1     0.0141
   1576 H           -7.8166   -13.9294     2.8779 H       1      m1     0.0161
   1577 C           -7.2035   -13.1833     3.4550 C       1      m1    -0.0160
   1578 C           -6.7183   -13.2865     4.6461 C       1      m1     0.0147
   1579 C           -6.9942   -11.8000     3.1311 C       1      m1    -0.0023
   1580 C           -6.8009   -14.0207     5.7502 C       1      m1     0.0411
   1581 H           -4.7835   -14.1766     3.1930 H       1      m1     0.0230
   1582 H           -4.4316   -12.3876     5.4593 H       1      m1     0.0429
   1583 C           -4.0255   -14.6148     3.9086 C       1      m1    -0.0161
   1584 C           -3.4223   -12.4902     5.2323 C       1      m1    -0.0200
   1585 H           -3.2476   -11.6158     3.1952 H       1      m1     0.0201
   1586 C           -3.0443   -13.7340     4.7472 C       1      m1    -0.0144
   1587 C           -2.6774   -12.1061     2.2917 C       1      m1    -0.0146
   1588 C           -2.2050   -11.6917     5.1317 C       1      m1     0.0081
   1589 H           -1.9551   -14.1040     4.5062 H       1      m1     0.0192
   1590 H           -1.6534   -15.2105     6.2440 H       1      m1     0.0185
   1591 C           -1.1874   -12.5833     2.8240 C       1      m1     0.0008
   1592 C           -0.9676   -12.0889     4.3464 C       1      m1    -0.0030
   1593 C            0.1682   -11.6287     5.1157 C       1      m1    -0.0204
   1594 C            0.4823   -14.7119     4.0334 C       1      m1    -0.0077
   1595 C            1.1953   -14.1106     5.2878 C       1      m1    -0.0003
   1596 C            1.2246   -12.6369     5.3982 C       1      m1    -0.0043
   1597 C            1.9909   -14.9581     6.1852 C       1      m1    -0.0178
   1598 C            1.9567   -12.6631     6.7082 C       1      m1    -0.0151
   1599 H            3.5876   -11.1662     4.7315 H       1      m1     0.0156
   1600 H            5.3163   -12.0630     4.7027 H       1      m1     0.0188
   1601 C            4.6325   -11.4857     5.2953 C       1      m1    -0.0557
   1602 H            4.4036   -11.8511     6.3229 H       1      m1     0.0235
   1603 H            5.0449   -15.3523     6.2263 H       1      m1     0.0384
   1604 H            6.0374   -13.5799     5.0750 H       1      m1     0.0141
   1605 C            6.6728   -13.9430     4.3193 C       1      m1    -0.0451
   1606 H            6.4064   -15.0762     4.7069 H       1      m1     0.0158
   1607 C            7.3848   -13.5343     3.2585 C       1      m1    -0.0110
   1608 H            7.7521   -11.4458     4.7324 H       1      m1     0.0178
   1609 H            6.8546   -12.5379     3.0584 H       1      m1     0.0136
   1610 C            8.4062   -14.6321     2.7502 C       1      m1    -0.0136
   1611 C            9.6744   -13.9730     2.4364 C       1      m1     0.0055
   1612 H           10.1622   -15.1436     5.2719 H       1      m1     0.0134
   1613 C           10.3730   -13.8078     3.6617 C       1      m1    -0.0013
   1614 C           10.3734   -15.1781     4.1985 C       1      m1    -0.0204
   1615 C           11.1050   -12.4875     4.0378 C       1      m1     0.0048
   1616 C           11.3289   -11.6304     2.7916 C       1      m1    -0.0174
   1617 C           11.4548   -12.2599     6.5481 C       1      m1    -0.0124
   1618 C           11.9856   -12.5358     5.3446 C       1      m1    -0.0032
   1619 C           13.2592   -11.8928     4.9024 C       1      m1     0.0055
   1620 C           14.1363   -12.8254     4.3113 C       1      m1    -0.0090
   1621 C           14.8849   -13.3745     3.6328 C       1      m1     0.0303
   1622 H           14.9044    -8.7043     5.9931 H       1      m1     0.0203
   1623 C          -13.7225    -8.3658     2.9402 C       1      m1     0.0089
   1624 H          -13.5883    -9.2637     2.2105 H       1      m1     0.0302
   1625 C          -13.2395    -6.6225     4.9106 C       1      m1     0.0020
   1626 C          -12.9094    -7.9654     4.0008 C       1      m1     0.0058
   1627 C          -11.6306    -8.6641     4.4091 C       1      m1    -0.0026
   1628 C          -10.4358    -8.5563     3.4991 C       1      m1     0.0045
   1629 H          -10.2992    -7.5852     6.1705 H       1      m1     0.0319
   1630 C           -9.5300    -9.2674     4.2346 C       1      m1    -0.0116
   1631 C           -9.3723    -7.8572     6.2662 C       1      m1    -0.0052
   1632 C           -9.1177   -10.7229     3.9316 C       1      m1     0.0078
   1633 C           -9.0663    -8.9761     5.5473 C       1      m1     0.0343
   1634 C           -7.6970   -10.9221     4.3052 C       1      m1     0.0241
   1635 C           -7.6108    -9.0210     5.6016 C       1      m1     0.0075
   1636 C           -7.1859    -8.1417     6.3673 C       1      m1     0.0138
   1637 C           -6.8760    -9.9655     4.8258 C       1      m1    -0.0015
   1638 C           -5.9871    -7.4698     6.6540 C       1      m1    -0.0109
   1639 H           -5.8262    -9.5780     4.5810 H       1      m1     0.0227
   1640 C           -5.1237    -7.5645     5.6118 C       1      m1     0.0169
   1641 C           -4.3764    -7.5598     4.5210 C       1      m1    -0.0063
   1642 H           -3.7435    -9.7694     3.0992 H       1      m1     0.0172
   1643 H           -3.6271   -10.0723     5.1519 H       1      m1     0.0301
   1644 C           -3.3110    -6.8018     3.5840 C       1      m1     0.0078
   1645 C           -2.5611    -7.7300     2.6648 C       1      m1    -0.0172
   1646 C           -2.5586   -10.3299     4.8465 C       1      m1    -0.0258
   1647 H           -2.3013    -8.7533     2.7512 H       1      m1     0.0230
   1648 C           -1.5691    -9.2517     5.0171 C       1      m1     0.0029
   1649 H           -1.1785    -7.3397     6.4634 H       1      m1     0.0214
   1650 C           -1.0127    -7.3355     2.7853 C       1      m1    -0.0046
   1651 C           -0.8523    -8.1125     5.6412 C       1      m1    -0.0184
   1652 H            0.2058   -10.5533     5.2694 H       1      m1     0.0202
   1653 C            0.3763    -8.0716     5.3303 C       1      m1    -0.0033
   1654 H            0.7209   -10.2538     2.9255 H       1      m1     0.0168
   1655 C            1.5323    -8.1258     4.8554 C       1      m1    -0.0145
   1656 H            2.5393   -10.1686     3.5618 H       1      m1     0.0150
   1657 H            2.8574    -9.3496     6.0238 H       1      m1     0.0194
   1658 C            2.7287    -8.0907     4.2092 C       1      m1    -0.0018
   1659 C            2.6841    -9.1924     3.1411 C       1      m1    -0.0257
   1660 C            3.6900    -8.8422     2.2961 C       1      m1     0.0000
   1661 C            4.1700    -7.3319     4.2618 C       1      m1     0.0027
   1662 C            5.5290    -7.8708     4.3984 C       1      m1    -0.0226
   1663 C            5.5447    -8.9116     5.2975 C       1      m1     0.0014
   1664 C            5.6558   -10.2917     4.9725 C       1      m1     0.0016
   1665 H            6.1660    -7.7750     3.4787 H       1      m1     0.0152
   1666 H            7.0736    -6.2787     3.8366 H       1      m1     0.0138
   1667 C            7.0880   -10.5846     4.7396 C       1      m1    -0.0266
   1668 H            7.2271    -8.3030     6.7257 H       1      m1     0.0471
   1669 H            7.7346    -8.3764     2.7570 H       1      m1     0.0154
   1670 C            7.6088    -9.2848     4.7480 C       1      m1     0.0104
   1671 H            7.7147    -9.7883     2.3977 H       1      m1     0.0193
   1672 C            8.1048    -8.4755     5.9911 C       1      m1    -0.0208
   1673 C            8.1818    -9.3094     3.2771 C       1      m1    -0.0550
   1674 C            8.8275    -7.2486     5.5040 C       1      m1     0.0107
   1675 H            9.0273    -8.8573     3.1577 H       1      m1     0.0228
   1676 C           10.1874    -7.1932     5.4543 C       1      m1    -0.0063
   1677 C           10.5917    -9.5844     6.4794 C       1      m1     0.0033
   1678 H           11.2017    -9.1709     2.5361 H       1      m1     0.0168
   1679 C           11.2566    -8.3724     5.9175 C       1      m1    -0.0345
   1680 C           11.5789    -6.9864     3.3339 C       1      m1     0.0022
   1681 C           11.7267    -8.3895     3.0113 C       1      m1    -0.0273
   1682 H           12.0579    -8.5762     5.0469 H       1      m1     0.0230
   1683 C           12.5522   -10.7317     2.9165 C       1      m1    -0.0128
   1684 C           12.8767    -9.3251     3.3129 C       1      m1     0.0044
   1685 C           13.9752   -10.7127     5.6270 C       1      m1     0.0004
   1686 C           14.1733    -8.9094     3.8664 C       1      m1    -0.0027
   1687 C           14.2029    -9.3963     5.2344 C       1      m1    -0.0205
   1688 C           14.9252    -7.7668     3.1006 C       1      m1     0.0058
   1689 C          -14.5882    -6.1869     5.1599 C       1      m1    -0.0213
   1690 H          -14.5286    -5.2199     5.8944 H       1      m1     0.0147
   1691 C          -12.7919    -3.8649     2.6220 C       1      m1     0.0132
   1692 C          -12.3790    -5.4478     4.6331 C       1      m1    -0.0054
   1693 C          -12.0839    -2.8437     2.2275 C       1      m1    -0.0030
   1694 C          -11.8024    -4.9698     3.2536 C       1      m1     0.0463
   1695 C          -11.4111    -5.5140     5.8822 C       1      m1     0.0134
   1696 C          -10.6039    -5.8397     2.8886 C       1      m1    -0.0722
   1697 H           -9.7855    -6.1705     3.8104 H       1      m1     0.0826
   1698 H           -9.5675    -3.7219     2.2208 H       1      m1     0.0355
   1699 O           -8.5968    -4.8992     5.0011 O       1      m1    -0.4542
   1700 C           -8.3858    -3.6858     2.6557 C       1      m1    -0.0296
   1701 C           -7.6448    -4.2364     3.7687 C       1      m1     0.1822
   1702 C           -7.5366    -4.6874     6.2466 C       1      m1     0.1450
   1703 C           -6.3576    -4.5095     5.7818 C       1      m1     0.1931
   1704 C           -6.3539    -4.1059     4.2559 C       1      m1    -0.0751
   1705 H           -5.4540    -5.0356     1.6474 H       1      m1     0.0275
   1706 H           -5.5777    -3.7013     3.8281 H       1      m1     0.0426
   1707 H           -3.1088    -3.9481     2.8598 H       1      m1     0.0221
   1708 C           -2.6814    -4.1595     3.8662 C       1      m1    -0.0155
   1709 C           -2.4209    -5.7218     3.9097 C       1      m1     0.0093
   1710 C           -2.4580    -3.4407     4.9684 C       1      m1     0.0228
   1711 C           -2.2446    -2.6211     6.2664 C       1      m1     0.0091
   1712 C           -1.1285    -6.1070     3.4892 C       1      m1     0.0012
   1713 C            0.2129    -4.2354     4.0672 C       1      m1     0.0051
   1714 C            0.1467    -5.2384     3.3872 C       1      m1    -0.0289
   1715 C            0.2901    -3.1860     4.8315 C       1      m1    -0.0171
   1716 H            0.6302    -5.2191     2.5745 H       1      m1     0.0246
   1717 C            0.7931    -3.3360     6.1829 C       1      m1     0.0283
   1718 C            2.1940    -2.5878     6.1952 C       1      m1    -0.0595
   1719 H            2.3682    -4.8763     4.3257 H       1      m1     0.0200
   1720 C            3.2338    -3.2440     5.6178 C       1      m1     0.0078
   1721 C            3.3644    -4.7091     3.8506 C       1      m1    -0.0122
   1722 H            4.2871    -3.6021     1.9782 H       1      m1     0.0377
   1723 C            3.5014    -4.2781     2.3173 C       1      m1    -0.0196
   1724 C            4.1581    -3.7429     4.7382 C       1      m1     0.0080
   1725 C            4.2702    -6.0604     3.5513 C       1      m1    -0.0193
   1726 H            5.2593    -6.0931     3.0649 H       1      m1     0.0179
   1727 C            5.5168    -4.0619     5.2826 C       1      m1     0.0005
   1728 H            6.8773    -3.6731     2.3300 H       1      m1     0.0722
   1729 C            6.5199    -4.1868     4.5091 C       1      m1    -0.0015
   1730 C            7.3644    -3.9448     3.3361 C       1      m1     0.0009
   1731 C            8.1981    -6.3006     4.4260 C       1      m1    -0.0383
   1732 H            8.0815    -2.3713     6.3043 H       1      m1     0.0379
   1733 H            8.0311    -5.2545     4.7778 H       1      m1     0.0202
   1734 C            8.7152    -4.5488     2.9737 C       1      m1    -0.0028
   1735 C            8.7150    -6.0507     2.9799 C       1      m1    -0.0015
   1736 H            9.9748    -4.8576     4.5844 H       1      m1     0.0216
   1737 H           11.4457    -2.1514     3.1011 H       1      m1     0.0552
   1738 C           10.9591    -6.3842     4.4030 C       1      m1    -0.0116
   1739 C           11.0453    -4.8385     4.2778 C       1      m1    -0.0191
   1740 C           11.9205    -3.9291     3.5118 C       1      m1     0.0028
   1741 C           11.7443    -2.8335     2.1518 C       1      m1    -0.0174
   1742 H           11.9296    -4.2775     6.8698 H       1      m1     0.0180
   1743 C           12.7116    -6.3780     2.5310 C       1      m1     0.0008
   1744 C           13.1471    -4.4157     3.4144 C       1      m1     0.0005
   1745 C           13.6328    -5.7108     3.3121 C       1      m1    -0.0010
   1746 H           13.8231    -4.6067     6.4001 H       1      m1     0.0249
   1747 C           14.1574    -3.4406     2.8629 C       1      m1    -0.0084
   1748 C           14.6298    -6.4271     3.9759 C       1      m1     0.0036
   1749 H          -14.3502     1.8516     5.7544 H       1      m1     0.0355
   1750 C          -14.0704     0.2250     3.2278 C       1      m1    -0.0030
   1751 C          -13.6019     1.0899     6.0092 C       1      m1     0.0086
   1752 C          -13.1919     0.6795     4.4774 C       1      m1     0.0032
   1753 C          -12.0059     1.0064     4.2228 C       1      m1    -0.0075
   1754 C          -11.1174     1.2545     3.4154 C       1      m1    -0.0062
   1755 C           -9.7822     1.5235     2.7333 C       1      m1    -0.0009
   1756 C           -9.1095     0.2372     2.6077 C       1      m1    -0.0181
   1757 C           -9.2306     1.6387     5.8705 C       1      m1     0.0050
   1758 H           -9.2142     0.6123     5.2204 H       1      m1     0.0393
   1759 C           -7.6977     0.1149     3.0485 C       1      m1    -0.0099
   1760 H           -7.5842     0.4508     4.1917 H       1      m1     0.0206
   1761 H           -6.7963    -0.4946     5.8308 H       1      m1     0.0507
   1762 C           -6.5780     1.9378     6.0765 C       1      m1    -0.0176
   1763 C           -6.4979     0.5133     5.9096 C       1      m1     0.0024
   1764 H           -6.1225    -2.0197     6.8673 H       1      m1     0.0582
   1765 C           -5.2659     0.2430     6.7405 C       1      m1    -0.0146
   1766 C           -3.9851     1.4244     2.6857 C       1      m1     0.0020
   1767 H           -3.5327    -0.6168     3.6522 H       1      m1     0.0148
   1768 C           -3.3212     0.5014     3.4687 C       1      m1    -0.0252
   1769 H           -2.6388    -1.4669     4.6118 H       1      m1     0.0187
   1770 C           -2.4018     0.8016     4.5561 C       1      m1     0.0060
   1771 C           -2.6309    -1.4792     5.6712 C       1      m1    -0.0137
   1772 C           -2.2488    -0.0698     5.7592 C       1      m1     0.0091
   1773 C           -2.0875     2.0787     4.2753 C       1      m1    -0.0209
   1774 H           -0.0821     1.4622     5.3415 H       1      m1     0.0843
   1775 H            0.1793    -2.0331     4.4344 H       1      m1     0.0694
   1776 O            1.1248    -0.3802     5.7391 O       1      m1    -0.4791
   1777 C            2.0672    -1.1289     6.3222 C       1      m1     0.2788
   1778 H            4.3494     2.0433     4.0576 H       1      m1     0.0265
   1779 H            5.0599     0.0649     4.4715 H       1      m1     0.0376
   1780 C            5.2702     0.3722     5.4932 C       1      m1    -0.0070
   1781 C            5.8092     1.8455     5.7136 C       1      m1    -0.0003
   1782 H            7.2572     1.6842     4.3670 H       1      m1     0.0321
   1783 C            7.8990     1.4009     6.7818 C       1      m1     0.0157
   1784 C            9.0002     1.2450     5.9470 C       1      m1    -0.0268
   1785 C            9.9437     1.2287     4.9941 C       1      m1     0.2186
   1786 O           10.6422    -0.0090     4.1055 O       1      m1    -0.4617
   1787 C           11.2242    -1.5947     6.5896 C       1      m1    -0.0019
   1788 C           12.1088     0.1859     3.6501 C       1      m1     0.2443
   1789 C           12.4436     1.5098     3.6264 C       1      m1    -0.0241
   1790 C           13.4924    -0.3757     3.4383 C       1      m1    -0.0586
   1791 H           13.5661    -1.5923     3.6923 H       1      m1     0.0469
   1792 C           13.9806     1.6949     3.0827 C       1      m1    -0.0241
   1793 O           14.0183    -0.4158     6.2635 O       1      m1    -0.4509
   1794 C           14.4495     0.3468     3.4235 C       1      m1     0.0479
   1795 C          -14.7928     5.5685     6.2759 C       1      m1     0.0019
   1796 C          -14.5391     4.1638     6.6679 C       1      m1    -0.0041
   1797 C          -14.2960     3.8094     3.3091 C       1      m1    -0.0261
   1798 C          -14.2454     5.9972     4.9850 C       1      m1     0.0255
   1799 C          -13.6283     4.8137     4.1905 C       1      m1    -0.0134
   1800 H          -11.9402     3.6698     5.6214 H       1      m1     0.0213
   1801 H          -11.9172     5.1926     3.2110 H       1      m1     0.0217
   1802 C          -11.0136     3.4382     5.0624 C       1      m1    -0.0239
   1803 C          -10.8587     4.8438     2.7895 C       1      m1    -0.0137
   1804 C          -10.4537     3.6061     3.6803 C       1      m1     0.0020
   1805 H           -9.9053     6.2339     4.5815 H       1      m1     0.0233
   1806 C          -10.0868     2.4517     5.4212 C       1      m1    -0.0073
   1807 C           -9.6365     5.9811     3.4743 C       1      m1    -0.0122
   1808 C           -9.3282     2.8632     2.9981 C       1      m1    -0.0025
   1809 H           -9.2654     4.2375     6.7538 H       1      m1     0.0255
   1810 C           -8.1652     5.6668     3.4212 C       1      m1    -0.0004
   1811 C           -7.9733     3.3393     2.5088 C       1      m1     0.0032
   1812 C           -7.9620     2.4806     6.0886 C       1      m1     0.0107
   1813 C           -7.2009     4.4313     3.0501 C       1      m1    -0.0182
   1814 H           -6.6359     4.4333     3.9562 H       1      m1     0.0166
   1815 H           -5.9237     2.4563     6.7235 H       1      m1     0.0230
   1816 C           -5.3904     6.0144     6.7265 C       1      m1    -0.0265
   1817 H           -5.0151     5.3059     6.3178 H       1      m1     0.0194
   1818 C           -3.8204     2.8683     2.4009 C       1      m1    -0.0258
   1819 H           -2.9406     3.5637     2.4013 H       1      m1     0.0214
   1820 H           -3.0326     6.6422     6.4120 H       1      m1     0.0160
   1821 H           -2.4178     2.8545     3.6275 H       1      m1     0.0219
   1822 C           -2.0416     5.9813     6.3920 C       1      m1    -0.0188
   1823 C           -1.1522     3.9459     3.3907 C       1      m1    -0.0068
   1824 C           -0.8737     2.7691     4.1931 C       1      m1     0.0039
   1825 H           -1.0323     6.6809     4.7538 H       1      m1     0.0185
   1826 C           -0.7087     6.1107     5.7003 C       1      m1    -0.0167
   1827 C           -0.5065     5.2320     2.9923 C       1      m1    -0.0217
   1828 C            0.0852     2.4377     5.1591 C       1      m1    -0.0225
   1829 H           -0.0148     5.8051     3.6731 H       1      m1     0.0232
   1830 C            0.4918     6.1830     6.2953 C       1      m1     0.0037
   1831 C            1.4946     2.8755     4.7786 C       1      m1     0.0174
   1832 C            2.2297     3.7032     2.2246 C       1      m1    -0.0247
   1833 C            2.2166     3.0672     5.9198 C       1      m1     0.0163
   1834 C            2.3141     2.8927     3.4729 C       1      m1     0.0115
   1835 C            3.0479     6.2152     6.2313 C       1      m1     0.0038
   1836 C            3.6241     2.3145     3.3469 C       1      m1    -0.0143
   1837 H            4.0890     4.0270     4.9316 H       1      m1     0.0187
   1838 C            3.6013     3.6837     5.7681 C       1      m1    -0.0217
   1839 C            4.5798     2.5467     6.0592 C       1      m1    -0.0176
   1840 H            6.2437     4.2832     5.2033 H       1      m1     0.0157
   1841 C            6.6129     2.4143     4.6875 C       1      m1    -0.0258
   1842 C            6.8325     3.9529     4.3042 C       1      m1    -0.0242
   1843 H            7.1927     5.5160     5.6833 H       1      m1     0.0117
   1844 C            7.9057     4.5712     3.5268 C       1      m1    -0.0123
   1845 C            8.1450     4.5373     2.1536 C       1      m1    -0.0140
   1846 H            8.5332     4.9705     4.3491 H       1      m1     0.0219
   1847 H            9.5516     4.1885     5.9727 H       1      m1     0.0354
   1848 C           10.1247     3.8598     4.9975 C       1      m1    -0.0017
   1849 C           10.4441     2.5670     4.5328 C       1      m1    -0.0105
   1850 C           10.9128     4.8973     4.3811 C       1      m1     0.0043
   1851 C           11.5473     2.7322     3.5303 C       1      m1     0.0248
   1852 C           11.4485     6.2619     4.6560 C       1      m1     0.0082
   1853 C           11.8005     4.0879     3.5885 C       1      m1    -0.0015
   1854 H           13.1439     2.1260     6.1504 H       1      m1     0.1101
   1855 C           12.7997     4.6630     2.3810 C       1      m1    -0.0209
   1856 C           13.1006     5.9346     2.8255 C       1      m1     0.0082
   1857 C           13.6001     2.9492     5.7723 C       1      m1    -0.0020
   1858 C           14.1511     2.8884     4.7292 C       1      m1     0.0080
   1859 C           14.7764     2.8427     3.5888 C       1      m1     0.0016
   1860 C           14.8200     8.7064     2.5468 C       1      m1    -0.0020
   1861 C          -14.5694     7.1892     4.2241 C       1      m1    -0.0505
   1862 C          -14.6257     9.4277     3.4338 C       1      m1    -0.0730
   1863 C          -14.3978     8.6959     4.4846 C       1      m1     0.3026
   1864 H          -14.3416    10.3620     5.7549 H       1      m1     0.2535
   1865 O          -13.9697     9.4027     5.6673 O       1      m1    -0.6160
   1866 C          -14.0535    10.7759     2.9609 C       1      m1     0.0772
   1867 H          -11.8327    10.3929     3.3236 H       1      m1     0.0377
   1868 C           -9.5420     7.0611     2.1237 C       1      m1     0.0027
   1869 H           -8.9809     9.7560     3.7293 H       1      m1     0.0227
   1870 C           -8.3521     7.8385     2.4450 C       1      m1     0.0049
   1871 C           -7.8656    10.0266     3.5646 C       1      m1    -0.0227
   1872 C           -7.4069     6.9385     3.1729 C       1      m1    -0.0206
   1873 C           -7.3116    10.8843     4.6028 C       1      m1     0.0093
   1874 C           -6.2243     8.1977     6.3627 C       1      m1    -0.0017
   1875 H           -6.3176     6.5248     2.9877 H       1      m1     0.0183
   1876 H           -6.2048     6.7616     4.8040 H       1      m1     0.0166
   1877 C           -5.8343    10.9781     4.5803 C       1      m1    -0.0225
   1878 C           -5.8395     6.9855     5.8187 C       1      m1    -0.0214
   1879 H           -5.2901    10.6681     3.8176 H       1      m1     0.0227
   1880 C           -3.6867    10.4371     6.2492 C       1      m1     0.0014
   1881 C           -3.3068    10.5879     4.9342 C       1      m1    -0.0251
   1882 H           -2.9027     8.1244     3.2504 H       1      m1     0.0185
   1883 C           -1.9080     8.5587     3.5873 C       1      m1    -0.0199
   1884 C           -2.1362     9.7443     4.4412 C       1      m1     0.0037
   1885 C           -0.8191    10.3538     4.8112 C       1      m1    -0.0058
   1886 C           -0.6302     8.0844     3.3975 C       1      m1    -0.0032
   1887 C            0.3512     9.8756     4.4630 C       1      m1     0.0032
   1888 C            0.8337     8.1214     3.1377 C       1      m1     0.0019
   1889 C            1.4222     9.2653     3.9775 C       1      m1    -0.0174
   1890 H            2.4999     9.4575     4.2803 H       1      m1     0.0203
   1891 C            2.9909     6.5105     4.8843 C       1      m1    -0.0056
   1892 C            2.8477     7.2802     3.9069 C       1      m1    -0.0045
   1893 C            3.2886     7.7559     2.7273 C       1      m1    -0.0036
   1894 H            3.5941    10.4236     5.0484 H       1      m1     0.0197
   1895 H            4.3042     9.1648     7.1388 H       1      m1     0.0168
   1896 C            4.7331     7.3097     2.6327 C       1      m1    -0.0142
   1897 C            5.0555     8.6914     6.3698 C       1      m1    -0.0204
   1898 C            5.5449     7.5237     3.8895 C       1      m1    -0.0128
   1899 C            5.5993     8.6737     4.8656 C       1      m1     0.0085
   1900 C            6.1244     9.6685     4.1274 C       1      m1    -0.0025
   1901 H            6.0285     6.4717     3.7069 H       1      m1     0.0184
   1902 C            7.0140     9.5362     3.0037 C       1      m1     0.0335
   1903 C            8.1279    10.4250     2.6014 C       1      m1    -0.0745
   1904 H            8.4281    10.5602     6.1350 H       1      m1     0.0422
   1905 H            8.4143     7.7300     5.8833 H       1      m1     0.0592
   1906 C            9.3585    10.1238     2.9181 C       1      m1     0.2414
   1907 O            9.7117     9.1589     4.0757 O       1      m1    -0.4799
   1908 C           10.2034    11.0065     2.5464 C       1      m1    -0.0640
   1909 H           10.4404     9.1910     6.6230 H       1      m1     0.0323
   1910 C           10.9873     7.2724     5.6392 C       1      m1     0.0322
   1911 C           11.0478    10.1121     4.5018 C       1      m1     0.1700
   1912 C           11.2817     8.6765     6.1779 C       1      m1     0.0092
   1913 C           12.0454     9.6374     5.3555 C       1      m1    -0.0561
   1914 C           12.6616     6.3415     3.8413 C       1      m1    -0.0146
   1915 H           13.0611    10.0353     5.5695 H       1      m1     0.0302
   1916 H           13.3077     7.3536     4.1105 H       1      m1     0.0240
   1917 C           14.9904     7.3835     2.9735 C       1      m1    -0.0033
   1918 C          -14.7165    11.9685     3.2501 C       1      m1     0.0132
   1919 C          -13.7981    13.5123     4.9959 C       1      m1    -0.0078
   1920 C          -13.8815    12.8515     3.6846 C       1      m1     0.0029
   1921 C          -12.7970    13.8002     5.8739 C       1      m1     0.0038
   1922 C          -12.5017    12.3180     3.4008 C       1      m1     0.0148
   1923 C          -12.7455    11.0044     3.1198 C       1      m1    -0.0025
   1924 C          -11.4241    12.9885     4.0464 C       1      m1    -0.0010
   1925 C          -11.3413    13.5899     5.5355 C       1      m1    -0.0248
   1926 H          -10.5005    13.4604     6.2177 H       1      m1     0.0195
   1927 C          -10.3248    13.1187     3.4068 C       1      m1    -0.0055
   1928 H           -9.4219    11.3758     4.8449 H       1      m1     0.0206
   1929 C           -9.3234    13.2557     2.7930 C       1      m1    -0.0096
   1930 C           -8.2576    11.8834     6.7329 C       1      m1    -0.0050
   1931 C           -8.3510    11.5920     5.3294 C       1      m1    -0.0210
   1932 C           -7.9201    13.0588     2.7327 C       1      m1    -0.0095
   1933 C           -6.7018    12.5027     2.4463 C       1      m1    -0.0018
   1934 C           -5.4018    13.1817     2.5429 C       1      m1    -0.0209
   1935 C           -5.2548    14.1133     3.4230 C       1      m1     0.0009
   1936 C           -5.0297    14.9853     4.3930 C       1      m1    -0.0078
   1937 C           -5.1812    11.2053     5.7366 C       1      m1     0.0039
   1938 C           -4.6601    14.6326     5.8679 C       1      m1     0.0011
   1939 H           -3.6905    11.3540     4.3374 H       1      m1     0.0199
   1940 C           -3.4321    13.8816     6.2998 C       1      m1    -0.0402
   1941 H           -2.8305    14.0925     5.4933 H       1      m1     0.0207
   1942 C           -2.9277   -15.1644     2.9705 C       1      m1    -0.0032
   1943 C           -2.0381    15.0062     2.6646 C       1      m1    -0.0047
   1944 H           -1.9853    12.0378     4.9117 H       1      m1     0.0194
   1945 C           -0.9778    12.0255     5.1173 C       1      m1    -0.0206
   1946 C           -0.4706    14.3207     2.3455 C       1      m1     0.0053
   1947 C           -0.3728    12.8454     2.8554 C       1      m1    -0.0160
   1948 C           -0.1680    12.6076     6.4241 C       1      m1    -0.0064
   1949 C            0.1084    12.6920     4.2205 C       1      m1    -0.0128
   1950 C           -0.0224    15.1844     3.4381 C       1      m1    -0.0051
   1951 H            0.9250    13.3846     4.6385 H       1      m1     0.0225
   1952 H            1.9845    14.7207     6.2200 H       1      m1     0.0342
   1953 C            2.3663    11.5853     6.2788 C       1      m1     0.0164
   1954 C            2.9506    11.2770     5.0068 C       1      m1    -0.0227
   1955 C            3.0659    13.3872     3.6280 C       1      m1    -0.0034
   1956 C            3.7283    12.3161     4.3000 C       1      m1     0.0076
   1957 C            3.8859    13.8773     2.5921 C       1      m1    -0.0010
   1958 C            5.3961    12.3423     4.4738 C       1      m1     0.0129
   1959 C            6.0349    11.1659     4.7138 C       1      m1    -0.0028
   1960 C            6.0948    12.9296     3.2600 C       1      m1    -0.0282
   1961 C            7.1472    11.6773     5.5637 C       1      m1     0.0227
   1962 H            6.9439    13.3754     3.0392 H       1      m1     0.0243
   1963 H            7.7904    11.2538     1.7653 H       1      m1     0.0238
   1964 C            8.2024    11.7157     6.0309 C       1      m1    -0.0156
   1965 H            8.0034   -15.1729     3.5966 H       1      m1     0.0212
   1966 H            9.6158    14.9894     6.9207 H       1      m1     0.0124
   1967 C            9.2184    12.8354     6.1023 C       1      m1     0.0100
   1968 C           10.1548    13.3325     2.5202 C       1      m1    -0.0030
   1969 C           10.3168    14.3673     3.4875 C       1      m1    -0.0002
   1970 C           10.6453    12.3712     6.5144 C       1      m1    -0.0146
   1971 C           11.4661    11.1159     3.5093 C       1      m1    -0.0231
   1972 H           11.6792    12.8153     6.0655 H       1      m1     0.0155
   1973 C           12.7269    11.6290     3.5835 C       1      m1    -0.0035
   1974 H           13.3428    14.2041     2.5968 H       1      m1     0.0363
   1975 H           13.5305    15.2995     4.8953 H       1      m1     0.0172
   1976 C           14.0298    12.3280     3.4784 C       1      m1     0.0101
   1977 C           13.7736    13.7718     3.4158 C       1      m1    -0.0158
   1978 C           14.1032    14.2432     4.8451 C       1      m1    -0.0199
   1979 C           15.0519    13.5752     5.6850 C       1      m1    -0.0040
   1980 H          -14.5328   -14.6748    10.2117 H       1      m1     0.0115
   1981 C          -14.7741   -13.1545     8.3044 C       1      m1    -0.0001
   1982 C          -14.4707   -13.5662     9.6971 C       1      m1    -0.0192
   1983 H          -12.8509    15.0643     9.1107 H       1      m1     0.0136
   1984 H          -13.5101   -11.3441     7.6198 H       1      m1     0.0426
   1985 C          -12.7166   -13.3882     9.7606 C       1      m1     0.0025
   1986 C          -11.8420   -12.5969    10.8669 C       1      m1     0.0058
   1987 C          -11.8714   -13.6343     8.9731 C       1      m1    -0.0057
   1988 C          -11.1639   -15.0115     7.5039 C       1      m1    -0.0370
   1989 C          -10.6270   -13.9015     8.3854 C       1      m1     0.1032
   1990 C          -10.5235   -13.1423    10.9907 C       1      m1     0.0070
   1991 H           -9.4982   -15.0900     9.6475 H       1      m1     0.0164
   1992 C           -9.7716   -13.9318     9.7989 C       1      m1    -0.0091
   1993 O           -9.0066   -12.7426     7.2618 O       1      m1    -0.4113
   1994 C           -8.2074   -13.8226     9.8256 C       1      m1    -0.0082
   1995 C           -8.1205   -12.7919     8.7502 C       1      m1     0.0715
   1996 C           -8.1026   -11.6823     7.9417 C       1      m1     0.2514
   1997 C           -7.5765   -14.5609    10.9116 C       1      m1    -0.0216
   1998 H           -6.9356   -14.1762     7.8165 H       1      m1     0.0460
   1999 C           -6.8958   -14.8100     6.9061 C       1      m1    -0.0230
   2000 H           -6.5127   -14.5869    11.0737 H       1      m1     0.0158
   2001 H           -5.2328   -12.7581     9.5502 H       1      m1    -0.0247
   2002 C           -5.0900   -11.7443     9.3007 C       1      m1     0.1869
   2003 C           -3.8484   -11.1743     8.8900 C       1      m1     0.0971
   2004 H           -2.6023   -12.9677     8.9177 H       1      m1     0.0193
   2005 C           -2.5275   -11.8002     8.6072 C       1      m1    -0.0577
   2006 H           -2.1749   -14.0407     7.3551 H       1      m1     0.0211
   2007 H           -2.0727   -11.6380     7.6363 H       1      m1     0.0383
   2008 C           -1.9474   -15.1317     7.2893 C       1      m1    -0.0350
   2009 C           -1.5578   -11.1402     9.8186 C       1      m1     0.0047
   2010 H           -0.2009   -14.8130     8.2201 H       1      m1     0.0404
   2011 H            2.2145   -11.7697     7.4005 H       1      m1     0.0697
   2012 O            1.7537   -14.9551    10.7098 O       1      m1    -0.4917
   2013 O            1.9566   -11.5339     9.4093 O       1      m1    -0.5052
   2014 C            2.5856   -12.3361    10.6107 C       1      m1     0.2076
   2015 C            2.5014   -13.9026     7.0739 C       1      m1     0.0100
   2016 C            3.4657   -11.1458     8.9330 C       1      m1     0.1532
   2017 H            3.2851   -14.3780     7.7880 H       1      m1     0.0530
   2018 C            3.8787   -12.3181    10.9324 C       1      m1    -0.1473
   2019 C            4.5344   -11.5401     9.8782 C       1      m1     0.2585
   2020 C            5.6185   -15.0635     7.1444 C       1      m1    -0.0553
   2021 C            6.0243   -13.7578     7.5262 C       1      m1    -0.0094
   2022 H            5.5820   -12.8595     6.8414 H       1      m1     0.0183
   2023 C            6.8484   -13.5894     8.7334 C       1      m1    -0.0035
   2024 H            7.4690   -12.7157     8.8223 H       1      m1     0.0354
   2025 C            7.4424   -14.6662     9.3951 C       1      m1    -0.0159
   2026 H            8.2589   -14.6190    10.1655 H       1      m1     0.0243
   2027 H           10.4522   -13.8274    10.6023 H       1      m1     0.0232
   2028 C           11.0112   -11.0995     7.1573 C       1      m1    -0.0042
   2029 C           11.0513   -11.6849     9.5910 C       1      m1    -0.0102
   2030 C           11.5688   -13.7869    10.3799 C       1      m1    -0.0365
   2031 H           11.7926   -14.3028     9.4499 H       1      m1     0.0196
   2032 C           11.8964   -12.2370    10.4781 C       1      m1     0.0052
   2033 C           13.8796   -13.4141    11.0535 C       1      m1    -0.0140
   2034 C           14.4084   -11.1338     6.9713 C       1      m1    -0.0067
   2035 C           14.6548   -11.0284    10.7237 C       1      m1     0.0145
   2036 C           14.7394   -12.6287     7.1083 C       1      m1    -0.0169
   2037 C           14.6728   -12.5724    10.4915 C       1      m1     0.0024
   2038 C          -14.8254    -6.9233     9.1153 C       1      m1    -0.0647
   2039 C          -14.2679    -8.2610     9.0831 C       1      m1    -0.0550
   2040 C          -14.2261    -9.3875     8.1430 C       1      m1    -0.0052
   2041 C          -13.0750   -10.3749     7.9087 C       1      m1    -0.0343
   2042 C          -13.1808    -8.0094     9.8185 C       1      m1     0.2170
   2043 O          -12.9542    -6.6445    10.5771 O       1      m1    -0.5214
   2044 C          -12.1291    -8.8129     9.5864 C       1      m1    -0.0939
   2045 C          -11.9946    -9.5686     8.4074 C       1      m1     0.2011
   2046 C          -11.0424    -8.4873    10.6275 C       1      m1     0.0789
   2047 O          -10.5438   -10.2277     8.0362 O       1      m1    -0.4318
   2048 C           -9.7212    -9.1135    10.1751 C       1      m1    -0.0462
   2049 H           -9.7062    -7.3300     8.4318 H       1      m1     0.0356
   2050 C           -9.2646    -9.8184     9.0023 C       1      m1     0.2095
   2051 C           -8.8071    -6.9154     8.4152 C       1      m1    -0.0419
   2052 C           -8.6010    -8.7995    11.0013 C       1      m1     0.0135
   2053 C           -8.2468    -7.4871     7.0354 C       1      m1     0.0196
   2054 H           -8.0407    -6.9919     9.2719 H       1      m1     0.0447
   2055 C           -8.0837   -10.4528     9.0308 C       1      m1    -0.0912
   2056 H           -7.2833   -10.1179     9.6383 H       1      m1     0.0541
   2057 H           -6.1660    -7.2723    10.6133 H       1      m1     0.0564
   2058 H           -5.8587    -6.5542     7.3183 H       1      m1     0.0533
   2059 O           -5.3775   -10.9664     8.1587 O       1      m1    -0.4573
   2060 C           -4.9875    -7.4197    10.5950 C       1      m1    -0.0017
   2061 C           -4.2896    -7.6712     9.4610 C       1      m1     0.0182
   2062 C           -3.5788    -7.8039     8.4729 C       1      m1    -0.0177
   2063 H           -4.0362    -7.9746     7.4678 H       1      m1     0.0379
   2064 C           -2.0021   -10.8371    11.2185 C       1      m1    -0.0082
   2065 C           -0.6636   -10.0825     9.2533 C       1      m1    -0.0261
   2066 H           -0.0729    -8.5985     7.5000 H       1      m1     0.0217
   2067 C            0.0245    -9.5015     8.0794 C       1      m1    -0.0353
   2068 H            0.3103   -10.7241     9.3471 H       1      m1     0.1096
   2069 H            1.0377    -9.8790     7.8134 H       1      m1     0.0427
   2070 C            2.7482    -8.2599    10.8927 C       1      m1    -0.0007
   2071 C            3.4427   -10.4726     7.7190 C       1      m1    -0.0153
   2072 C            3.8132    -6.6620     9.7469 C       1      m1    -0.0026
   2073 C            3.4814    -8.1384     9.7971 C       1      m1    -0.0057
   2074 C            3.5415    -9.4772     6.8217 C       1      m1    -0.0155
   2075 H            3.6867    -8.8130     9.0048 H       1      m1     0.0485
   2076 C            4.9137    -8.7252     6.7267 C       1      m1    -0.0089
   2077 C            5.0180    -7.1594     6.8542 C       1      m1    -0.0309
   2078 O            5.6031   -10.6977     9.6049 O       1      m1    -0.4604
   2079 H            5.3431    -9.2809     7.7569 H       1      m1     0.0770
   2080 O            7.1990    -7.2517     8.6962 O       1      m1    -0.4582
   2081 H            7.4927    -9.1989     8.0756 H       1      m1     0.1029
   2082 C            8.4732    -9.6826     7.9083 C       1      m1    -0.0042
   2083 C            8.6062    -6.7877    10.2010 C       1      m1     0.3723
   2084 H            8.6320   -10.2514     9.6810 H       1      m1     0.0762
   2085 O            8.9001    -7.7380    10.9487 O       1      m1    -0.4993
   2086 C            9.2779   -10.2867     8.8652 C       1      m1    -0.0057
   2087 C            9.3738    -9.2907     6.7599 C       1      m1     0.0139
   2088 C           10.4681   -11.0898     8.5043 C       1      m1    -0.0033
   2089 H           10.8156    -7.5776    10.0113 H       1      m1     0.0805
   2090 C           12.0729    -7.2005     9.7493 C       1      m1     0.1601
   2091 H           11.6938    -7.8279     6.7348 H       1      m1     0.0179
   2092 H           13.0309    -7.9119     9.8067 H       1      m1     0.0146
   2093 H           13.5460    -9.5798     9.6292 H       1      m1     0.0216
   2094 C           14.0519   -10.5098     9.5981 C       1      m1    -0.0201
   2095 C           14.7625   -10.3724     8.1202 C       1      m1    -0.0015
   2096 H          -14.7403    -5.3142     7.8568 H       1      m1     0.0322
   2097 O          -14.4654    -2.6031     8.7474 O       1      m1    -0.5073
   2098 C          -14.5506    -4.8099    10.1166 C       1      m1    -0.0103
   2099 C          -14.2289    -6.2532    10.0393 C       1      m1     0.2522
   2100 C          -13.8225    -3.8999    10.9020 C       1      m1     0.0145
   2101 C          -13.0760    -2.2895     7.9942 C       1      m1     0.2060
   2102 H          -12.7515    -4.3277     7.8228 H       1      m1     0.0405
   2103 C          -12.4828    -3.7237    10.8701 C       1      m1     0.1588
   2104 C          -12.2106    -3.4264     8.1099 C       1      m1    -0.0386
   2105 C          -11.1822    -3.4813    10.9488 C       1      m1     0.1663
   2106 C          -10.8971    -3.5555     8.2968 C       1      m1    -0.0030
   2107 C          -10.7831    -5.5749     6.9172 C       1      m1     0.0191
   2108 H          -10.2173    -2.8159     8.7470 H       1      m1     0.0445
   2109 C          -10.2631    -4.8228     8.0841 C       1      m1    -0.0033
   2110 C          -10.0805    -4.0057    10.3851 C       1      m1    -0.0988
   2111 C           -8.9109    -4.4869     9.8458 C       1      m1     0.2194
   2112 C           -9.0193    -5.3033     8.3048 C       1      m1     0.0116
   2113 C           -7.7343    -4.9931     7.6319 C       1      m1    -0.0495
   2114 O           -7.3641    -4.5068    10.1739 O       1      m1    -0.4667
   2115 C           -6.8682    -4.5583     8.6882 C       1      m1     0.1639
   2116 C           -5.6479    -4.0824     8.1258 C       1      m1     0.1715
   2117 C           -5.1370    -2.9985     8.7599 C       1      m1    -0.0319
   2118 H           -5.3029    -2.8730     9.9409 H       1      m1     0.0466
   2119 O           -5.0959    -4.4289     6.6769 O       1      m1    -0.4796
   2120 C           -2.8176    -6.4937     7.8703 C       1      m1     0.0233
   2121 C           -2.7778    -2.7894    11.1402 C       1      m1    -0.0066
   2122 C           -2.3905    -2.3424     9.8856 C       1      m1     0.0057
   2123 C           -2.0330    -5.9876     8.9720 C       1      m1     0.0020
   2124 H           -1.4589    -2.6813     7.0791 H       1      m1     0.0252
   2125 C           -0.9920    -5.3052     9.2613 C       1      m1    -0.0039
   2126 H           -0.6790    -3.2501     8.5368 H       1      m1     0.0231
   2127 C           -0.2299    -4.2656     8.3538 C       1      m1    -0.0189
   2128 C           -0.2916    -5.7235    10.5391 C       1      m1    -0.0086
   2129 C            0.4713    -4.2098     7.2367 C       1      m1    -0.0095
   2130 H            3.0040    -5.0623     8.0945 H       1      m1     0.0161
   2131 H            3.7652    -6.0085    10.7003 H       1      m1     0.0139
   2132 C            3.5474    -5.9822     8.4753 C       1      m1    -0.0189
   2133 C            3.8870    -6.2474     7.0042 C       1      m1    -0.0035
   2134 H            4.9229    -3.9894     9.3198 H       1      m1     0.0207
   2135 C            4.6191    -2.9490     8.6329 C       1      m1    -0.0247
   2136 C            5.1389    -3.2691     7.6452 C       1      m1    -0.0019
   2137 C            5.7902    -4.1402     6.7657 C       1      m1    -0.0098
   2138 C            6.2356    -6.5700     7.5443 C       1      m1     0.1791
   2139 H            6.7509    -2.4990     8.8306 H       1      m1     0.0244
   2140 C            6.6837    -5.2114     7.4265 C       1      m1    -0.0241
   2141 C            7.7896    -4.7808     8.3942 C       1      m1    -0.0081
   2142 C            8.1792    -6.0966     8.9972 C       1      m1     0.0990
   2143 C            8.5325    -3.4591     8.1115 C       1      m1    -0.0021
   2144 C            8.7364    -2.7105     6.8082 C       1      m1    -0.0343
   2145 C            9.1156    -2.9805     9.4606 C       1      m1    -0.0612
   2146 C            9.8197    -3.7086    10.2031 C       1      m1     0.2331
   2147 C           10.4015    -4.8567     9.7872 C       1      m1    -0.1376
   2148 H           10.9276    -4.5668     7.9272 H       1      m1     0.0062
   2149 C           10.8164    -5.3426     8.7737 C       1      m1     0.0252
   2150 C           11.1011    -5.2375    10.9661 C       1      m1     0.2161
   2151 C           12.0580    -6.0938     8.7136 C       1      m1    -0.0303
   2152 H           12.6518    -3.1082     8.6145 H       1      m1     0.0371
   2153 C           13.2980    -5.6750     7.9966 C       1      m1     0.0107
   2154 C           12.9493    -4.7721     6.9280 C       1      m1    -0.0465
   2155 C           13.1865    -2.3048     7.9512 C       1      m1    -0.0922
   2156 C           14.7310    -6.0972     8.0502 C       1      m1    -0.0249
   2157 H           14.4865    -4.4276    10.3230 H       1      m1     0.0455
   2158 C          -13.7614    -0.3355     6.9329 C       1      m1     0.0060
   2159 C          -12.7028    -1.0014     7.5458 C       1      m1    -0.0581
   2160 C          -12.4833     1.5320     6.8733 C       1      m1     0.0010
   2161 H          -11.5640    -0.8006     7.5537 H       1      m1     0.0487
   2162 H          -10.0593     2.1959     9.6326 H       1      m1     0.0384
   2163 C           -8.6927    -0.0808     9.0743 C       1      m1     0.2868
   2164 C           -8.6235     0.6451    10.4303 C       1      m1    -0.0669
   2165 O           -8.4853    -0.5832     7.9044 O       1      m1    -0.4871
   2166 C           -7.2132     1.1661    10.7719 C       1      m1    -0.0012
   2167 H           -6.7488    -0.3116     9.8067 H       1      m1     0.0391
   2168 C           -6.2549     0.0795    10.6276 C       1      m1    -0.0558
   2169 C           -5.4013    -1.2125     7.0236 C       1      m1    -0.0030
   2170 C           -4.8089     0.4331    10.4850 C       1      m1     0.1949
   2171 C           -4.6048    -1.8288     8.0964 C       1      m1     0.0252
   2172 O           -4.5629     1.9842    10.9791 O       1      m1    -0.4066
   2173 H           -4.4122     0.7893     7.1083 H       1      m1     0.0258
   2174 C           -3.9172    -0.2808     9.9277 C       1      m1    -0.0389
   2175 C           -3.4951    -1.3464     9.0401 C       1      m1     0.0029
   2176 C           -2.1075    -0.7632     8.2824 C       1      m1     0.0078
   2177 C           -1.9622     0.2665     7.1412 C       1      m1     0.0074
   2178 C           -1.2318     1.7220     7.1072 C       1      m1     0.0053
   2179 C           -1.0544    -1.8857     9.8433 C       1      m1    -0.0241
   2180 C           -0.8625    -1.0919     8.6437 C       1      m1    -0.0158
   2181 H           -0.5437    -2.1221    10.6939 H       1      m1     0.0184
   2182 H           -0.0641    -0.3676     8.0901 H       1      m1     0.0433
   2183 H            0.2655     1.7247     8.4286 H       1      m1     0.0227
   2184 C            2.2533    -0.3503    10.3882 C       1      m1    -0.0248
   2185 H            1.9862    -0.9267     7.4808 H       1      m1    -0.0082
   2186 H            1.9368    -0.2659     9.3579 H       1      m1     0.0187
   2187 C            2.8424    -1.5464    11.1099 C       1      m1     0.0043
   2188 H            3.5048    -1.2809     8.6297 H       1      m1     0.0126
   2189 H            3.5570    -0.0408     6.8864 H       1      m1     0.0174
   2190 C            4.2234    -1.8835    10.7593 C       1      m1    -0.0053
   2191 C            4.4674    -1.4084     9.3161 C       1      m1    -0.0101
   2192 H            4.6312     2.3216     7.1546 H       1      m1     0.0213
   2193 C            4.6715     0.0456     6.8324 C       1      m1    -0.0165
   2194 C            5.3959    -0.2081     9.1514 C       1      m1    -0.0017
   2195 C            5.6853     0.4306     7.8442 C       1      m1    -0.0003
   2196 C            6.2148    -0.5528    10.2822 C       1      m1     0.0050
   2197 C            6.8640     1.4658     7.5132 C       1      m1    -0.0086
   2198 C            6.9968    -1.6551     9.5897 C       1      m1    -0.0313
   2199 C            7.2369     0.1443    10.9629 C       1      m1    -0.0075
   2200 C            8.2695    -1.8183     9.9655 C       1      m1     0.0435
   2201 H            8.5121     2.1447    10.2496 H       1      m1     0.0318
   2202 C            8.8332    -0.6021    10.9029 C       1      m1    -0.0118
   2203 C            9.4387     1.6050     9.8212 C       1      m1    -0.0925
   2204 C            9.6352     0.1613     9.9274 C       1      m1     0.0126
   2205 C           10.0487    -2.2084     6.7222 C       1      m1     0.0242
   2206 C           10.1632     2.0691     8.7932 C       1      m1     0.1661
   2207 C           10.8991    -0.2486     9.1127 C       1      m1    -0.0749
   2208 C           11.0122     1.0116     8.5313 C       1      m1     0.1968
   2209 H           12.0436    -0.2549     9.4234 H       1      m1     0.0552
   2210 H           11.9828     0.2205    11.2856 H       1      m1     0.0212
   2211 C           12.5530    -1.3206     6.8740 C       1      m1     0.1716
   2212 C           12.9401    -0.5490    11.0974 C       1      m1    -0.0706
   2213 C           13.4031     2.0983    10.4522 C       1      m1     0.1976
   2214 O           14.0728     1.1930     9.4110 O       1      m1    -0.4534
   2215 C           13.8033     0.3117    10.6151 C       1      m1     0.2120
   2216 C           14.5187    -1.9520     8.0466 C       1      m1     0.2432
   2217 C          -15.0015    -0.9434     7.0356 C       1      m1     0.2148
   2218 C          -13.2651     3.9533     7.1289 C       1      m1    -0.0095
   2219 C          -12.9291     6.2435     8.1654 C       1      m1     0.0036
   2220 H          -13.1590     4.5212     9.9046 H       1      m1     0.0195
   2221 C          -12.8111     4.7272     7.9010 C       1      m1    -0.0020
   2222 C          -12.6470     5.0274    10.9541 C       1      m1    -0.0204
   2223 C          -12.3782     2.7338     7.7277 C       1      m1     0.0100
   2224 C          -11.3443     3.2933    11.0018 C       1      m1     0.0374
   2225 C          -11.4443     4.5997     8.2377 C       1      m1    -0.0040
   2226 C          -10.9843     2.5634     9.9681 C       1      m1    -0.0101
   2227 C          -11.0528     2.9617     8.2828 C       1      m1    -0.0239
   2228 C          -10.6215     5.6960     7.7994 C       1      m1    -0.0052
   2229 H          -10.2789     2.2292     7.8597 H       1      m1     0.0261
   2230 C           -9.2301     6.0037     7.3858 C       1      m1    -0.0109
   2231 C           -8.4289     3.6645     6.6857 C       1      m1    -0.0237
   2232 C           -8.1138     5.3049     8.1138 C       1      m1     0.0087
   2233 C           -7.5181     4.1785     7.7417 C       1      m1    -0.0167
   2234 H           -8.1537     5.8352     9.9686 H       1      m1     0.0335
   2235 C           -7.5708     6.2984     9.1125 C       1      m1    -0.0205
   2236 H           -6.7983     3.5995     8.1774 H       1      m1     0.0345
   2237 C           -5.9538     6.4058     9.4315 C       1      m1     0.0197
   2238 C           -5.2236     6.1460    10.6937 C       1      m1    -0.0576
   2239 C           -5.3080     6.0691     8.1880 C       1      m1     0.0018
   2240 C           -1.7232     5.9294     7.7382 C       1      m1    -0.0014
   2241 C           -1.6992     6.0885     8.9558 C       1      m1     0.0003
   2242 C           -1.1065     6.2799    10.0870 C       1      m1    -0.0024
   2243 C           -0.3061     2.6214     6.7359 C       1      m1     0.0032
   2244 C            0.8583     2.3858     7.6460 C       1      m1    -0.0013
   2245 H            0.9105     3.3548    10.0771 H       1      m1     0.0224
   2246 C            1.4249     3.3377    11.1048 C       1      m1    -0.0192
   2247 H            1.5649     5.8864     8.1374 H       1      m1     0.0201
   2248 C            1.6371     6.1264     7.0562 C       1      m1    -0.0211
   2249 C            2.2569     2.6085     7.3198 C       1      m1    -0.0083
   2250 H            2.9479     2.6784     8.1290 H       1      m1     0.0174
   2251 C            3.6005     5.0090     6.8142 C       1      m1    -0.0029
   2252 C            4.1178     5.3681     8.0683 C       1      m1    -0.0117
   2253 C            4.2705     6.1628     9.1198 C       1      m1    -0.0001
   2254 H            5.3928     4.5243     9.8718 H       1      m1     0.0177
   2255 C            5.3200     3.4926    10.5753 C       1      m1    -0.0154
   2256 H            5.7944     5.8309    10.6052 H       1      m1     0.0149
   2257 C            6.3218     2.5902    10.2190 C       1      m1    -0.0020
   2258 C            6.9064     2.5390     8.8882 C       1      m1    -0.0086
   2259 C            7.4603     6.0790     6.9493 C       1      m1    -0.0063
   2260 C            7.4673     3.8086     8.3778 C       1      m1    -0.0085
   2261 H            8.4967     5.2482     8.8207 H       1      m1     0.0182
   2262 C            7.9340     5.0326     8.0193 C       1      m1    -0.0203
   2263 H            9.6228     2.9262    11.3720 H       1      m1     0.0213
   2264 H           10.8642     6.5508     7.4761 H       1      m1     0.0193
   2265 C           10.4664     3.7564    11.0958 C       1      m1    -0.0350
   2266 H           10.3978     4.1841     9.9695 H       1      m1     0.0281
   2267 O           11.2717     2.3302     7.8046 O       1      m1    -0.4440
   2268 C           12.8953     3.1200    11.0770 C       1      m1    -0.0721
   2269 H           13.5831     5.9517    10.6382 H       1      m1     0.0142
   2270 H           13.7323     3.7331     7.9063 H       1      m1     0.0627
   2271 C           14.4094     3.3993     7.1613 C       1      m1    -0.0366
   2272 C           14.3470     5.0896    11.1612 C       1      m1    -0.0480
   2273 H           14.0856     4.5247    10.1240 H       1      m1     0.0242
   2274 H           14.8832     2.5508     7.5654 H       1      m1     0.0827
   2275 C           14.8329     6.5738     7.2081 C       1      m1    -0.0104
   2276 C          -14.6966     9.9618     9.7263 C       1      m1    -0.0230
   2277 H           15.0065     7.3987     8.8687 H       1      m1     0.0084
   2278 C          -14.3065     7.0428     8.0549 C       1      m1     0.0108
   2279 H          -14.5050     9.2463     8.9338 H       1      m1     0.0347
   2280 C          -12.7029     7.4477    10.4351 C       1      m1    -0.0082
   2281 C          -11.9321     7.8409     9.2497 C       1      m1    -0.0083
   2282 H          -11.3841     8.7919     9.0896 H       1      m1     0.0263
   2283 C          -11.5174     6.8705     8.2203 C       1      m1     0.0093
   2284 H          -10.3236     9.1114     7.2935 H       1      m1     0.0319
   2285 C           -9.5514     8.7548     8.1089 C       1      m1    -0.0242
   2286 C           -9.1601     7.3200     8.0080 C       1      m1     0.0064
   2287 C           -8.4566     7.2752     9.1248 C       1      m1    -0.0084
   2288 C           -8.4527     9.4818     8.7711 C       1      m1     0.0054
   2289 C           -8.4701     8.5283     9.8900 C       1      m1     0.0005
   2290 C           -7.4742     9.9088     7.7590 C       1      m1     0.0113
   2291 C           -6.3112     8.8316     7.7770 C       1      m1    -0.0010
   2292 H           -5.9118     8.2310     8.7607 H       1      m1     0.0364
   2293 O           -4.6735    10.2996    10.2054 O       1      m1    -0.4433
   2294 C           -3.8421     9.3366     9.4094 C       1      m1     0.1640
   2295 C           -3.3732     9.3388     7.0957 C       1      m1     0.0173
   2296 C           -3.2074     8.6416     8.1995 C       1      m1    -0.0710
   2297 C           -3.1597     9.9800    10.4043 C       1      m1     0.1389
   2298 H           -3.0954     7.5023     8.1683 H       1      m1     0.0274
   2299 C           -1.6681    10.1131    10.4227 C       1      m1    -0.0541
   2300 H           -1.3192    10.0605     8.2097 H       1      m1     0.0190
   2301 H           -1.6053    10.1160    11.6322 H       1      m1     0.0242
   2302 C           -0.7754     9.6959     9.2549 C       1      m1    -0.0084
   2303 C            0.1594     8.9862     9.7203 C       1      m1    -0.0053
   2304 C            1.4475     8.3676    10.1446 C       1      m1    -0.0006
   2305 C            2.6979     8.6516     9.4498 C       1      m1    -0.0252
   2306 H            2.9900     8.5674     8.5407 H       1      m1     0.0213
   2307 C            3.8723    10.4751    10.6326 C       1      m1     0.0008
   2308 C            4.0275     9.2370    10.0393 C       1      m1    -0.0004
   2309 H            4.1948    11.0525     7.1971 H       1      m1     0.0551
   2310 C            4.9144     6.5434    10.2372 C       1      m1    -0.0335
   2311 C            5.1255     8.1950    10.1381 C       1      m1    -0.0052
   2312 C            5.7075     7.9636     7.0521 C       1      m1     0.0072
   2313 C            6.3355     9.0511    10.0277 C       1      m1    -0.0118
   2314 C            6.5170     7.0332     7.7185 C       1      m1    -0.0244
   2315 C            6.3210    10.3781    10.1754 C       1      m1     0.0209
   2316 H            6.4795     6.8208     8.7175 H       1      m1     0.0226
   2317 C            7.3215     8.5574    10.8531 C       1      m1    -0.0078
   2318 C            7.4915     7.3298    11.4623 C       1      m1    -0.0070
   2319 H            8.4097     7.9437     7.7801 H       1      m1     0.0231
   2320 C            8.5864     7.3166     6.9200 C       1      m1    -0.0365
   2321 H            8.2896     9.1309    10.4739 H       1      m1     0.0482
   2322 H            9.6304     7.0131    10.8579 H       1      m1     0.0167
   2323 C           10.0446     6.8069     6.7646 C       1      m1    -0.0197
   2324 H           10.4627     8.6349     9.2380 H       1      m1     0.0238
   2325 C           11.4029     8.3182     8.8143 C       1      m1    -0.0454
   2326 C           12.0553     9.3325     8.3285 C       1      m1    -0.0008
   2327 H           12.1430     7.6066     9.5335 H       1      m1     0.0155
   2328 C           12.1252    10.7055     7.8882 C       1      m1    -0.0005
   2329 C           13.0374     9.7434    10.6823 C       1      m1    -0.0199
   2330 H           13.7778     6.8943     7.2799 H       1      m1     0.0185
   2331 C           14.3050     9.8862    10.2292 C       1      m1     0.0434
   2332 C          -14.3908    13.5249     7.8675 C       1      m1    -0.0045
   2333 C          -14.3058    11.4869     9.6025 C       1      m1    -0.0010
   2334 C          -14.1807    12.5730     8.9311 C       1      m1    -0.0120
   2335 H          -14.0016    14.0877    11.1759 H       1      m1     0.0204
   2336 H          -12.7547    15.3587    10.9326 H       1      m1     0.0214
   2337 C          -13.2422    14.3738     7.2750 C       1      m1    -0.0065
   2338 H          -13.2949    11.6147    10.1012 H       1      m1     0.0166
   2339 C          -12.9786    14.3173    10.9225 C       1      m1    -0.0686
   2340 C          -12.3198    15.1759     7.9633 C       1      m1    -0.0098
   2341 H          -12.5693    13.6893    10.2194 H       1      m1     0.0220
   2342 H          -11.6150    11.1942     7.1546 H       1      m1     0.0399
   2343 C          -10.8559    11.9159     7.7005 C       1      m1    -0.0421
   2344 H          -11.2385    12.2383     8.7428 H       1      m1     0.0181
   2345 C           -9.5995    11.8675     7.2821 C       1      m1    -0.0015
   2346 H           -9.5287    12.9908    10.4795 H       1      m1     0.0140
   2347 H           -7.5595    15.0194     6.9059 H       1      m1     0.0257
   2348 C           -7.1905    11.3559     7.4711 C       1      m1     0.0073
   2349 H           -7.4014    12.5101    10.4948 H       1      m1     0.0324
   2350 C           -5.7842    11.3953     7.1400 C       1      m1    -0.0058
   2351 H           -5.4666    12.0599     8.0235 H       1      m1     0.0450
   2352 C           -5.2515    15.3231     6.9082 C       1      m1    -0.0047
   2353 C           -4.5643    15.3599     8.1277 C       1      m1    -0.0097
   2354 H           -3.6912    12.7426     6.7019 H       1      m1     0.0198
   2355 C           -3.1882    14.5737     7.7523 C       1      m1    -0.0104
   2356 H           -3.3729    13.5420     8.2168 H       1      m1     0.0230
   2357 H           -1.8290    13.3007    10.8353 H       1      m1     0.0315
   2358 C           -0.7812    14.8949     7.8425 C       1      m1    -0.0161
   2359 C           -0.2426    14.5136    10.7780 C       1      m1    -0.0340
   2360 C           -0.1511    13.5412     7.4852 C       1      m1     0.0052
   2361 C            0.1602    12.7823     8.7283 C       1      m1    -0.0059
   2362 C            0.4812    13.5314     9.9459 C       1      m1     0.0595
   2363 C            0.9955    11.5668     8.3683 C       1      m1    -0.0049
   2364 C            0.9451    11.8061     6.8701 C       1      m1    -0.0013
   2365 C            1.5777    13.3448    10.7043 C       1      m1    -0.0208
   2366 C            2.4030    11.4722     8.5854 C       1      m1     0.0306
   2367 C            2.8863    12.8943    10.4433 C       1      m1     0.0389
   2368 C            3.0322    11.4679     9.9930 C       1      m1    -0.0003
   2369 C            3.0457    11.0219     7.3219 C       1      m1    -0.0201
   2370 O            5.0850    13.3077     8.2950 O       1      m1    -0.4550
   2371 C            6.0461    13.1025     9.5881 C       1      m1     0.1905
   2372 C            5.8928    14.6597     8.1797 C       1      m1     0.2017
   2373 C            6.2053    11.7181    10.0599 C       1      m1    -0.0137
   2374 C            6.5929    15.0588     9.2992 C       1      m1    -0.0228
   2375 C            6.7624    14.0596    10.0929 C       1      m1    -0.0505
   2376 H            8.7002    13.9917     7.9264 H       1      m1     0.0301
   2377 C            9.4190    13.9453     7.0305 C       1      m1    -0.0349
   2378 H            9.9611    11.0707     8.0509 H       1      m1     0.0398
   2379 C           10.8483    11.3010     7.4729 C       1      m1    -0.0173
   2380 C           12.3990    11.1283    10.6741 C       1      m1    -0.0389
   2381 C           12.7308    12.2534     9.9300 C       1      m1     0.0392
   2382 C           13.1316    11.7649     8.4491 C       1      m1    -0.0041
   2383 C           13.0821    13.5611    10.4445 C       1      m1    -0.0103
   2384 H           13.4458    14.1525     9.5695 H       1      m1     0.0163
   2385 C           13.6891    12.5542     7.3437 C       1      m1    -0.0086
   2386 C           14.6568    13.6655     7.1131 C       1      m1    -0.0088
   2387 H          -14.4646   -13.2624    12.8921 H       1      m1     0.0164
   2388 H          -14.7388   -11.7626    14.9192 H       1      m1     0.0162
   2389 C          -13.8749   -11.6263    14.1521 C       1      m1     0.3015
   2390 C          -13.8085   -12.3296    12.8135 C       1      m1    -0.0596
   2391 C          -12.7300   -12.4797    11.8078 C       1      m1     0.0271
   2392 H          -12.6154   -14.8285    13.0412 H       1      m1     0.0213
   2393 H          -11.4292   -13.2174   -15.5235 H       1      m1     0.0279
   2394 C           -9.5290   -13.4542    11.9949 C       1      m1    -0.0065
   2395 C           -9.3024   -12.1177    12.4681 C       1      m1     0.0005
   2396 C           -8.6863   -10.8029    12.9555 C       1      m1     0.0057
   2397 C           -8.3572   -14.5499    12.0647 C       1      m1    -0.0003
   2398 H           -8.1310   -14.8656    14.2630 H       1      m1     0.0215
   2399 C           -7.5408   -15.0347    13.3983 C       1      m1    -0.0405
   2400 H           -7.0127   -13.1858    15.1690 H       1      m1     0.0208
   2401 H           -6.9989   -14.0862    13.0948 H       1      m1     0.0190
   2402 C           -6.0115   -13.4376    15.3664 C       1      m1    -0.0175
   2403 C           -5.3547   -12.7530    14.2922 C       1      m1    -0.0091
   2404 C           -4.8785   -12.3571    13.2943 C       1      m1    -0.0218
   2405 H           -3.9310   -12.3474    11.1869 H       1      m1     0.0048
   2406 H           -4.3982   -15.0770    14.3088 H       1      m1     0.0194
   2407 C           -3.9591   -11.7551    12.1292 C       1      m1    -0.0264
   2408 H           -3.9513   -11.8084    14.7267 H       1      m1     0.0222
   2409 C           -2.8460   -10.8629    12.3218 C       1      m1    -0.0202
   2410 H           -2.3479   -13.4638    12.7868 H       1      m1     0.0109
   2411 C           -1.4317   -14.1900    12.3841 C       1      m1     0.0058
   2412 H           -0.3180   -11.8235    13.7296 H       1      m1     0.0184
   2413 C           -0.2155   -14.1676    11.9655 C       1      m1    -0.0518
   2414 H           -0.0438   -14.8194   -15.5843 H       1      m1     0.0260
   2415 C            0.2011   -11.7133    12.5985 C       1      m1    -0.0132
   2416 C            0.5076   -15.1642    11.1990 C       1      m1     0.3255
   2417 C            0.5981   -12.9493    11.8490 C       1      m1     0.0096
   2418 C            1.8888   -13.2700    11.2564 C       1      m1     0.1142
   2419 C            2.2565   -12.4887    15.6164 C       1      m1     0.0095
   2420 H            2.9066   -13.5540    13.4999 H       1      m1     0.0237
   2421 C            3.4992   -12.9325    15.1530 C       1      m1    -0.0426
   2422 C            3.8027   -13.5823    14.0075 C       1      m1     0.0702
   2423 H            4.1787   -13.1797    11.4200 H       1      m1     0.1281
   2424 H            3.5110   -11.2867    12.8192 H       1      m1     0.0355
   2425 O            5.2596   -13.8531    12.9022 O       1      m1    -0.5307
   2426 C            5.3593   -14.3596    14.1578 C       1      m1     0.2705
   2427 C            5.9017   -11.4122    14.9699 C       1      m1     0.0255
   2428 C            6.4693   -14.8202    15.0043 C       1      m1    -0.1297
   2429 H            6.4423   -12.5395    11.7591 H       1      m1     0.0913
   2430 H            6.8750   -15.1594    13.0680 H       1      m1     0.0860
   2431 C            6.8041   -11.6075    12.0924 C       1      m1    -0.0028
   2432 C            8.1844   -11.6337    12.4091 C       1      m1     0.0002
   2433 H            8.4953   -12.5620    11.8542 H       1      m1     0.0269
   2434 O            8.9975   -15.1317    14.8619 O       1      m1    -0.4757
   2435 H           10.4111   -12.8068    13.3017 H       1      m1     0.0482
   2436 C           11.0827   -12.0923    13.7556 C       1      m1    -0.0563
   2437 H           11.6353   -12.5861    14.6106 H       1      m1     0.0597
   2438 C           12.4471   -14.7647    12.6891 C       1      m1    -0.0055
   2439 C           12.3303   -11.4465    13.0971 C       1      m1     0.1897
   2440 C           12.6541   -11.5788    11.6678 C       1      m1    -0.0403
   2441 C           12.7491   -14.0381    11.4640 C       1      m1     0.0008
   2442 H          -14.3650    -9.4272    15.4117 H       1      m1     0.0765
   2443 C          -14.2816    -8.3042    15.1690 C       1      m1    -0.0253
   2444 H          -13.1849    -8.0635    14.5334 H       1      m1     0.0437
   2445 O          -12.8314   -10.9847    14.5749 O       1      m1    -0.4885
   2446 H          -11.4678    -7.4448    12.5863 H       1      m1     0.0481
   2447 C          -10.8386    -7.9305    11.8559 C       1      m1    -0.0077
   2448 H          -10.7266   -10.5543    13.4430 H       1      m1     0.0772
   2449 C           -9.7377   -10.4138    13.6290 C       1      m1    -0.0416
   2450 H           -9.3647    -9.6148    14.2749 H       1      m1     0.0363
   2451 C           -9.5411    -8.0393    11.9812 C       1      m1    -0.0560
   2452 C           -9.1907    -6.9059    12.7546 C       1      m1     0.2484
   2453 C           -7.4681    -9.1448    11.7822 C       1      m1     0.0203
   2454 C           -7.2647   -10.6443    13.4848 C       1      m1    -0.0017
   2455 C           -6.5468    -9.7745    12.6680 C       1      m1    -0.0115
   2456 C           -6.4399   -10.6335    14.6278 C       1      m1    -0.0045
   2457 H           -5.4595    -9.2077    13.1712 H       1      m1     0.0216
   2458 H           -4.8125    -7.5910    13.1077 H       1      m1     0.0379
   2459 C           -4.3857    -7.7963    12.0397 C       1      m1    -0.0057
   2460 C           -2.9268    -7.7358    12.3792 C       1      m1    -0.0143
   2461 H           -2.6372   -11.0247    13.4251 H       1      m1     0.0154
   2462 H           -2.2784    -8.3728    11.5933 H       1      m1     0.0202
   2463 C           -2.2130    -6.8254    13.2668 C       1      m1     0.0079
   2464 C           -0.8846    -7.2936    13.7126 C       1      m1    -0.0622
   2465 H           -0.4995    -8.2847    13.1388 H       1      m1     0.0345
   2466 C           -0.7048    -7.0215    15.2438 C       1      m1     0.3136
   2467 C            1.1354   -10.5993    12.5259 C       1      m1     0.0018
   2468 C            1.9644    -7.1462    12.7380 C       1      m1    -0.0032
   2469 C            1.8824    -8.4166    11.8895 C       1      m1    -0.0027
   2470 C            2.0125    -9.6869    12.6042 C       1      m1     0.0108
   2471 C            2.9233   -10.2964    14.7074 C       1      m1     0.0219
   2472 H            2.9727    -6.6847    13.1367 H       1      m1     0.0284
   2473 C            3.3982   -10.2898    13.2435 C       1      m1    -0.0394
   2474 H            3.8612    -9.3314    12.7619 H       1      m1     0.0247
   2475 H            4.7892    -8.6358    11.2969 H       1      m1     0.0273
   2476 C            5.4918    -7.9370    11.1902 C       1      m1     0.0649
   2477 C            5.6379    -7.1740    12.0421 C       1      m1    -0.0128
   2478 H            6.2424   -10.5312    12.2323 H       1      m1     0.0509
   2479 C            6.8847    -7.9630    14.9733 C       1      m1     0.0171
   2480 C            6.7806   -10.7840    14.5195 C       1      m1     0.0179
   2481 H            7.9616    -7.6011    13.5847 H       1      m1     0.0475
   2482 C            7.9565    -9.8732    14.0351 C       1      m1     0.0256
   2483 C            7.8852    -8.3322    14.2682 C       1      m1    -0.0174
   2484 C            8.9237   -10.7310    13.3342 C       1      m1     0.0121
   2485 H            9.5900    -8.0337   -15.3402 H       1      m1     0.0337
   2486 C            9.7700    -6.8408    13.8540 C       1      m1    -0.0083
   2487 C            9.9415    -6.9315   -15.5673 C       1      m1    -0.0224
   2488 H           10.6759    -8.2742    12.3280 H       1      m1     0.0945
   2489 C           10.2662   -10.6719    13.6023 C       1      m1     0.0254
   2490 C           10.4047    -9.3399    14.2801 C       1      m1    -0.0026
   2491 C           10.1917    -8.1324    13.3467 C       1      m1     0.0187
   2492 H           10.4986    -9.1238    15.3634 H       1      m1     0.0284
   2493 C           12.7486    -6.9796   -15.4215 C       1      m1    -0.0270
   2494 O           13.1945   -10.6423    14.1591 O       1      m1    -0.5067
   2495 H           12.9849    -8.0708    15.3423 H       1      m1     0.0400
   2496 C           13.6201   -10.5747    11.6897 C       1      m1    -0.0421
   2497 C           13.9186    -9.9617    13.0736 C       1      m1     0.2274
   2498 C           14.4616    -8.5537    13.1462 C       1      m1    -0.0380
   2499 C           14.8507    -7.5559    14.2861 C       1      m1     0.0211
   2500 H           14.5833    -8.2536    12.0162 H       1      m1     0.0414
   2501 C          -14.4209    -6.5523    13.9835 C       1      m1     0.0006
   2502 C          -14.3204    -2.7566    12.0209 C       1      m1     0.3380
   2503 O          -13.8233    -2.7504    13.2283 O       1      m1    -0.3897
   2504 C          -13.3240    -5.7416    13.8541 C       1      m1     0.0259
   2505 C          -12.1762    -5.3145    13.5135 C       1      m1     0.0378
   2506 O          -12.0549    -2.3752    11.5430 O       1      m1    -0.3701
   2507 H          -11.0586    -3.8684    13.6748 H       1      m1     0.0802
   2508 C          -11.0619    -4.8615    13.1912 C       1      m1     0.0001
   2509 C          -10.1040    -6.1267    13.3038 C       1      m1    -0.0331
   2510 C           -9.3497    -2.4680    13.5872 C       1      m1     0.0196
   2511 C           -8.2354    -3.3741    13.3051 C       1      m1    -0.0168
   2512 H           -7.6813    -3.6092    12.4746 H       1      m1     0.0775
   2513 C           -7.9097    -3.8245    14.5316 C       1      m1    -0.0251
   2514 O           -7.8390    -6.3979    13.1953 O       1      m1    -0.4713
   2515 C           -7.2743    -5.3847    14.4033 C       1      m1     0.1954
   2516 H           -6.1933    -2.1119    12.1836 H       1      m1     0.0283
   2517 C           -5.9651    -4.9337    15.0504 C       1      m1    -0.0368
   2518 C           -5.4273    -2.2472    13.0778 C       1      m1    -0.0182
   2519 C           -4.1602    -3.1497    13.1466 C       1      m1     0.0088
   2520 C           -3.6738    -2.8675    12.1059 C       1      m1    -0.0029
   2521 C           -3.0709    -3.5566    14.1536 C       1      m1    -0.0084
   2522 C           -2.7397    -4.7226    14.3368 C       1      m1     0.0030
   2523 C           -2.8298    -6.1229    14.3969 C       1      m1    -0.0161
   2524 C           -1.9292    -2.6774    14.5355 C       1      m1    -0.0157
   2525 C           -0.7259    -3.4159    14.4270 C       1      m1     0.0136
   2526 C           -0.1993    -4.3148    14.0236 C       1      m1    -0.0074
   2527 C            0.1679    -6.0519    11.7874 C       1      m1    -0.0211
   2528 C            0.4728    -6.3598    13.0097 C       1      m1     0.0289
   2529 C            0.9518    -5.0014    13.6992 C       1      m1     0.0310
   2530 C            1.7292    -2.6430    13.2224 C       1      m1     0.0186
   2531 C            1.7656    -4.1907    13.0652 C       1      m1    -0.0142
   2532 C            2.0283    -2.4717    11.8600 C       1      m1    -0.0316
   2533 H            1.9927    -3.2274    11.2964 H       1      m1     0.0189
   2534 C            3.1245    -4.6252    12.9545 C       1      m1     0.0053
   2535 C            4.2546    -4.9083    12.4136 C       1      m1    -0.0123
   2536 C            4.5556    -2.4927    15.1271 C       1      m1    -0.0050
   2537 C            4.8845    -3.8327    15.3372 C       1      m1     0.0434
   2538 C            5.1614    -2.6225    11.5608 C       1      m1     0.0022
   2539 C            5.2766    -5.0419    14.9810 C       1      m1    -0.0370
   2540 C            5.2229    -5.1182    13.4287 C       1      m1    -0.0024
   2541 C            5.4984    -3.8293    11.7981 C       1      m1    -0.0199
   2542 C            6.0693    -6.1608    12.8229 C       1      m1    -0.0137
   2543 H            6.6057    -3.9568    12.1842 H       1      m1     0.0303
   2544 H            7.0959    -2.1211    15.4210 H       1      m1     0.0199
   2545 H            6.8445    -5.3657    12.7044 H       1      m1     0.0266
   2546 H            9.4502    -5.9567    13.3632 H       1      m1     0.0425
   2547 C            9.2007    -4.3417    15.4933 C       1      m1    -0.0237
   2548 H            9.8952    -4.2837    14.6954 H       1      m1     0.0347
   2549 O           10.0638    -3.2950    11.6803 O       1      m1    -0.5078
   2550 C           11.0234    -4.4833    11.9967 C       1      m1     0.1624
   2551 C           11.6459    -4.5872    13.0446 C       1      m1     0.0003
   2552 C           11.9019    -4.1571    14.2640 C       1      m1     0.0087
   2553 O           12.0012    -6.4400    11.1177 O       1      m1    -0.4964
   2554 C           12.5150    -3.8229    15.4352 C       1      m1    -0.0052
   2555 H           12.4015    -2.6176    10.9367 H       1      m1     0.0384
   2556 C           13.7971    -4.4580    15.2347 C       1      m1    -0.0197
   2557 H           14.0979    -4.5122    14.1277 H       1      m1     0.0480
   2558 C           14.4155    -2.1850    11.9304 C       1      m1    -0.0147
   2559 C          -14.5579     1.1930    14.4091 C       1      m1    -0.0707
   2560 C          -14.0867    -0.0569    14.8204 C       1      m1     0.0096
   2561 C          -12.6456    -0.2182    14.4526 C       1      m1     0.2654
   2562 H          -11.6088    -1.7723    15.2519 H       1      m1     0.2167
   2563 C          -12.0803     0.9907    14.1306 C       1      m1    -0.0634
   2564 O          -11.8262    -1.4478    14.2375 O       1      m1    -0.4766
   2565 H          -11.1885     1.0655    13.5126 H       1      m1     0.0725
   2566 H          -10.6441    -0.1017    10.4521 H       1      m1     0.0430
   2567 H          -10.1052    -2.0964    15.2001 H       1      m1     0.0540
   2568 C           -9.8683     1.4211   -15.5729 C       1      m1     0.2584
   2569 C           -9.8847     0.3376    11.1123 C       1      m1     0.0068
   2570 H           -9.7790    -1.9237    11.5680 H       1      m1     0.0478
   2571 C           -9.5275    -1.5530    12.4742 C       1      m1     0.0421
   2572 C           -9.2682    -0.2801    12.3984 C       1      m1     0.0032
   2573 C           -9.1933    -1.8547    14.9372 C       1      m1     0.0734
   2574 O           -8.9832     0.3525    15.2501 O       1      m1    -0.4383
   2575 H           -8.5647     0.3572    12.9314 H       1      m1     0.0655
   2576 H           -7.5716     2.1037    13.3005 H       1      m1     0.0747
   2577 C           -5.8095     1.5492    14.2833 C       1      m1     0.0336
   2578 C           -5.2662    -0.5933    15.1321 C       1      m1     0.0081
   2579 C           -5.3821    -1.3686    14.2097 C       1      m1     0.0025
   2580 C           -4.9247     0.7664    14.7399 C       1      m1    -0.0108
   2581 C           -3.3814     1.3038    14.3805 C       1      m1     0.0305
   2582 C           -3.0107     2.0256    15.4657 C       1      m1    -0.0029
   2583 C           -2.1933     0.9581    13.5335 C       1      m1    -0.0284
   2584 C           -2.0581     2.1096    12.6843 C       1      m1     0.0643
   2585 H           -1.8777     0.0714    13.3723 H       1      m1     0.0255
   2586 C            0.6423     0.8350    14.8129 C       1      m1     0.0034
   2587 C            0.9925    -0.1286    13.7549 C       1      m1    -0.0005
   2588 H            0.9510    -1.6707    14.9935 H       1      m1     0.0658
   2589 C            0.9541     0.5758    12.4783 C       1      m1    -0.0037
   2590 C            1.0095     1.8990    13.0661 C       1      m1    -0.0043
   2591 C            1.0967     2.0478    14.4138 C       1      m1    -0.0035
   2592 C            1.3313    -1.4424    13.9410 C       1      m1    -0.0232
   2593 C            1.5649     0.1597    11.4238 C       1      m1     0.0009
   2594 C            5.1089    -1.4214    13.9304 C       1      m1     0.0108
   2595 C            5.3732    -0.7001    13.1895 C       1      m1    -0.0229
   2596 H            5.5347     0.0421    12.4434 H       1      m1     0.0258
   2597 C            6.1476     1.3525    15.2054 C       1      m1    -0.0018
   2598 C            6.6051     1.8956    13.9157 C       1      m1    -0.0047
   2599 C            6.7416     1.5502    11.3930 C       1      m1    -0.0059
   2600 C            6.7843     2.0091    12.8970 C       1      m1    -0.0071
   2601 C            7.0505    -1.2266    14.9836 C       1      m1    -0.0179
   2602 H            7.6277    -0.4340    13.0717 H       1      m1     0.0276
   2603 C            7.9188    -1.0979    13.6827 C       1      m1    -0.0367
   2604 H            9.6888    -0.8657    11.8231 H       1      m1     0.0522
   2605 H            8.9743    -1.4977    13.6053 H       1      m1     0.0440
   2606 C           10.2045    -1.1683    15.2909 C       1      m1    -0.0302
   2607 C           10.4614     0.2012    15.4979 C       1      m1     0.0541
   2608 C           10.5203     1.5466    14.8803 C       1      m1    -0.0116
   2609 H           10.8704    -1.6962    14.5893 H       1      m1     0.0431
   2610 H           11.4085     1.6689    14.1474 H       1      m1     0.0503
   2611 C           13.1706    -1.9659    11.4524 C       1      m1     0.0311
   2612 O           13.3001     0.5812    15.4313 O       1      m1    -0.5414
   2613 C           14.2793     1.3754    14.5559 C       1      m1     0.2645
   2614 H          -14.8517     5.5275    10.9987 H       1      m1     0.0190
   2615 C          -14.2059     3.7858    13.5991 C       1      m1    -0.0298
   2616 C          -13.7046     2.6125    14.2572 C       1      m1     0.0088
   2617 C          -13.5434     6.2947    14.1264 C       1      m1     0.0112
   2618 H          -13.4895     4.6643    13.3589 H       1      m1     0.0167
   2619 H          -13.0412     5.5876    14.7304 H       1      m1     0.0305
   2620 C          -12.7633     6.3182    11.4954 C       1      m1    -0.0020
   2621 C          -12.4041     2.3035    14.6672 C       1      m1     0.0008
   2622 C          -11.8998     4.1255    11.8064 C       1      m1    -0.0143
   2623 H          -11.7536     4.2588    13.0948 H       1      m1     0.0289
   2624 H           -8.7744     6.4041    11.2484 H       1      m1     0.0304
   2625 O           -8.2248     3.3580    11.7271 O       1      m1    -0.4797
   2626 C           -7.4800     3.0613    14.7682 C       1      m1     0.0333
   2627 C           -7.2877     5.7830    12.0794 C       1      m1    -0.0340
   2628 C           -7.1401     2.4779    11.2030 C       1      m1     0.1771
   2629 C           -7.0746     4.3988    11.9764 C       1      m1     0.1408
   2630 C           -6.6718     2.4478    13.8324 C       1      m1    -0.0289
   2631 H           -6.6419     5.7579   -15.5354 H       1      m1     0.0242
   2632 H           -6.4528     6.3410    12.5151 H       1      m1     0.0257
   2633 C           -5.8504     2.7456    11.5753 C       1      m1     0.1172
   2634 C           -5.7362     3.9019    12.1129 C       1      m1     0.1677
   2635 H           -5.0389     3.5721    15.1941 H       1      m1     0.0467
   2636 O           -4.4090     4.5051    12.5238 O       1      m1    -0.4552
   2637 C           -4.4495     5.8062    11.7272 C       1      m1     0.2256
   2638 C           -1.6637     3.2305    12.4033 C       1      m1     0.0255
   2639 C           -1.4056     4.4098    12.0398 C       1      m1     0.0352
   2640 C           -0.9150     5.6995    11.7044 C       1      m1    -0.0015
   2641 H           -0.2083     4.8593    14.4001 H       1      m1     0.0216
   2642 C           -0.0891     6.3882    12.2219 C       1      m1    -0.0050
   2643 C            0.2993     4.2480    15.1408 C       1      m1    -0.0227
   2644 C            1.0371     3.0426    15.3879 C       1      m1     0.0006
   2645 C            1.7604     2.9528    12.3017 C       1      m1     0.0041
   2646 H            2.4719     3.6947    14.1711 H       1      m1     0.0211
   2647 C            2.7489     4.1673    13.0685 C       1      m1    -0.0324
   2648 H            2.8079     5.2914    13.1423 H       1      m1     0.0187
   2649 C            4.3256     3.9547    13.1213 C       1      m1    -0.0022
   2650 C            4.4835     5.3522    15.0566 C       1      m1    -0.0037
   2651 C            4.7180     3.4681    11.8845 C       1      m1     0.0001
   2652 C            5.3704     4.5507    13.9287 C       1      m1     0.0001
   2653 C            6.5738     5.0903    13.4588 C       1      m1    -0.0074
   2654 C            7.7775     5.7513    13.7126 C       1      m1     0.0022
   2655 C            8.3695     4.8700    14.8019 C       1      m1    -0.0076
   2656 C            8.8701     5.8454    12.3874 C       1      m1    -0.0039
   2657 C            9.6256     3.7056    14.5759 C       1      m1    -0.0079
   2658 C            9.7178     4.8121    11.8285 C       1      m1    -0.0122
   2659 C           10.8455     6.5119    13.7501 C       1      m1    -0.0782
   2660 C           10.6012     4.1865    13.9135 C       1      m1    -0.0102
   2661 C           11.3409     5.1641    13.5244 C       1      m1     0.0075
   2662 C           11.9827     3.9173    11.5584 C       1      m1     0.0280
   2663 C           12.4757     4.3400    12.6740 C       1      m1    -0.0136
   2664 H           13.2227     3.1674    14.5668 H       1      m1     0.0415
   2665 C           13.9335     2.5979    13.9635 C       1      m1    -0.0820
   2666 C           13.9281     4.7290    12.5199 C       1      m1    -0.0039
   2667 H           13.7143     4.9157    15.2923 H       1      m1     0.0174
   2668 C           14.3058     5.8397    15.4959 C       1      m1    -0.0148
   2669 C           14.6132     3.5554    13.0327 C       1      m1     0.0131
   2670 C          -14.8524     6.7087    14.4781 C       1      m1    -0.0268
   2671 O          -15.0231     9.0327    12.9667 O       1      m1    -0.4449
   2672 H          -14.3992     8.1433    11.1600 H       1      m1     0.0121
   2673 C          -13.8609     8.3090    12.1882 C       1      m1     0.1895
   2674 C          -13.2847     6.8556    12.7795 C       1      m1    -0.0188
   2675 C          -12.4621     8.4530    11.4986 C       1      m1    -0.0277
   2676 C          -10.4239     9.8585    15.0722 C       1      m1    -0.0117
   2677 C           -9.7307     8.7393    15.0008 C       1      m1     0.0476
   2678 C           -8.6662     7.8822    13.0498 C       1      m1    -0.0010
   2679 H           -8.4966     6.6690    14.4952 H       1      m1     0.0361
   2680 C           -8.7061     9.1893    12.6076 C       1      m1    -0.0208
   2681 C           -8.6600     7.7689    14.6328 C       1      m1    -0.0118
   2682 H           -8.6666    10.1350    13.2215 H       1      m1     0.0184
   2683 C           -8.4394     6.7341    12.1819 C       1      m1    -0.0045
   2684 C           -8.3377     9.4980    11.2353 C       1      m1    -0.0031
   2685 C           -7.7709    10.6713    11.1638 C       1      m1     0.0245
   2686 C           -7.5287     8.3385    15.3728 C       1      m1    -0.0144
   2687 C           -6.2414     8.0472    15.0665 C       1      m1     0.0253
   2688 C           -4.8416     8.4761    14.8191 C       1      m1    -0.0739
   2689 H           -5.2759     9.4189    12.8653 H       1      m1     0.0438
   2690 C           -4.5013     9.2734    13.7123 C       1      m1    -0.0098
   2691 H           -4.1482     6.6424    12.1259 H       1      m1    -0.0105
   2692 C           -3.0244     9.7226    13.9952 C       1      m1    -0.0094
   2693 C           -2.7879     9.0999    15.2444 C       1      m1    -0.0613
   2694 H           -2.2374    10.2150    13.5377 H       1      m1     0.0278
   2695 H           -0.6995     9.0316    14.8051 H       1      m1     0.0132
   2696 C            1.1206     7.2095    12.5438 C       1      m1    -0.0249
   2697 H            0.6366    10.5761    11.9296 H       1      m1     0.0312
   2698 C            1.1097     8.4182    11.6370 C       1      m1    -0.0032
   2699 C            1.6250     9.9393    12.0985 C       1      m1    -0.0231
   2700 H            1.1074     7.2388    13.6485 H       1      m1     0.0170
   2701 C            2.2534     8.6412    15.1729 C       1      m1    -0.0083
   2702 C            2.9760     9.5011    12.7076 C       1      m1     0.0021
   2703 C            3.0648     8.9455    14.1188 C       1      m1    -0.0095
   2704 H            4.4064     7.0124    11.2241 H       1      m1     0.0214
   2705 C            4.0601    10.0218    12.1024 C       1      m1    -0.0035
   2706 H            4.4817     6.8617    13.6539 H       1      m1     0.0205
   2707 C            4.3419     9.6573    14.4756 C       1      m1     0.0007
   2708 C            4.5732     6.8424    14.8474 C       1      m1    -0.0317
   2709 C            5.3414    10.1321    13.3566 C       1      m1    -0.0367
   2710 H            6.1234     9.2264    12.9458 H       1      m1     0.0281
   2711 C            5.9792     7.4863    15.2715 C       1      m1     0.0034
   2712 H            6.6723     6.5863    11.6252 H       1      m1     0.0163
   2713 C            6.8831     6.6164    14.7465 C       1      m1     0.0063
   2714 H            7.8884    10.4740   -15.3484 H       1      m1     0.0229
   2715 C            8.8697     6.9624    11.4936 C       1      m1     0.0070
   2716 C            9.6232    10.5418    14.8236 C       1      m1     0.0453
   2717 H           10.0724     6.0597    14.3159 H       1      m1     0.0401
   2718 O           10.2683     9.1125    12.8954 O       1      m1    -0.4892
   2719 C           10.9806     7.7727    13.0456 C       1      m1     0.2324
   2720 C           11.1725    10.7784    11.2218 C       1      m1     0.2171
   2721 C           11.2002     9.5950    11.8424 C       1      m1     0.1649
   2722 C           12.3117     7.7493    12.4637 C       1      m1    -0.0593
   2723 C           12.5859     8.8937    11.7948 C       1      m1     0.0284
   2724 C           12.7870    10.5384    15.4163 C       1      m1    -0.0038
   2725 H           12.8483     6.8823    12.9989 H       1      m1     0.0219
   2726 C           13.5663     8.2413    14.9186 C       1      m1    -0.0208
   2727 C           13.7308     9.6742    15.4988 C       1      m1     0.0369
   2728 C           14.3889     7.7624    13.9731 C       1      m1     0.1574
   2729 H          -14.0684    12.4551    11.1738 H       1      m1     0.0234
   2730 C          -13.9485    12.1641    12.2425 C       1      m1    -0.0350
   2731 H          -13.0977    12.2646    14.6745 H       1      m1     0.0281
   2732 C          -13.7559    12.1736    15.5320 C       1      m1    -0.0259
   2733 H          -13.5794    11.3194    12.7625 H       1      m1     0.0561
   2734 C          -13.2624    14.2707    15.5874 C       1      m1    -0.0112
   2735 C          -12.0667    14.2330    14.4223 C       1      m1     0.0019
   2736 C          -12.0110    14.1447    12.2350 C       1      m1    -0.0005
   2737 C          -11.9459    15.1625    13.1925 C       1      m1    -0.0235
   2738 C          -11.4005    13.0129    14.7456 C       1      m1    -0.0276
   2739 C          -10.9031    13.2253    12.3618 C       1      m1    -0.0063
   2740 C          -10.5518    12.7146    13.6482 C       1      m1     0.0064
   2741 C           -9.6101    12.9488    11.6258 C       1      m1    -0.0234
   2742 C           -9.1016    12.2717    13.7430 C       1      m1    -0.0194
   2743 H           -8.7692    14.3119    14.0348 H       1      m1     0.0242
   2744 H           -8.7673    11.9173    14.8708 H       1      m1     0.0163
   2745 C           -8.6089    12.4476    12.4158 C       1      m1     0.0021
   2746 C           -8.2116    13.5256    14.3687 C       1      m1    -0.0199
   2747 C           -7.5103    11.9198    11.3911 C       1      m1    -0.0064
   2748 C           -6.8034    13.3195    14.0487 C       1      m1     0.0095
   2749 H           -6.2944    11.0561    13.9084 H       1      m1     0.0238
   2750 C           -6.4078    14.6327    13.9084 C       1      m1     0.0019
   2751 C           -6.1296    11.9880    14.5232 C       1      m1    -0.0171
   2752 C           -5.1071    15.0436    14.7703 C       1      m1    -0.0203
   2753 C           -4.8316    12.5355    14.8643 C       1      m1    -0.0018
   2754 C           -4.0575    13.7677    14.6486 C       1      m1     0.0089
   2755 H           -4.1682    11.6273    14.6481 H       1      m1     0.0322
   2756 H           -3.1420   -15.2523    11.9781 H       1      m1     0.0145
   2757 C           -2.6413    13.3910    14.7805 C       1      m1    -0.0197
   2758 C           -2.0496   -15.3559    12.1098 C       1      m1    -0.0161
   2759 C           -1.5645    14.2962    11.3033 C       1      m1     0.0285
   2760 C           -1.4199    13.3260    14.7335 C       1      m1     0.0353
   2761 H           -1.2991    14.5494    14.6087 H       1      m1     0.0381
   2762 C           -0.7456    12.1212    15.0262 C       1      m1     0.0191
   2763 O            0.4971    13.4974    12.7935 O       1      m1    -0.5202
   2764 C            0.5488    11.7763    15.4210 C       1      m1     0.0347
   2765 C            1.5534    13.2547    12.1937 C       1      m1     0.3344
   2766 H            2.5487    13.2107    12.8832 H       1      m1    -0.0145
   2767 H            3.8151    14.7799    11.5208 H       1      m1     0.0893
   2768 C            3.8532    13.5712    11.2073 C       1      m1    -0.0285
   2769 H            4.5441    13.0572    11.5304 H       1      m1     0.0228
   2770 H            6.0705    10.8757    13.5132 H       1      m1     0.0245
   2771 H            7.3606    13.1206    15.0046 H       1      m1     0.0183
   2772 C            7.1131    14.7381    12.5139 C       1      m1    -0.0151
   2773 C            7.5854    14.2093    11.1099 C       1      m1     0.0360
   2774 C            7.5996   -15.2730    15.4764 C       1      m1     0.2593
   2775 C            7.6139    13.5317    12.2791 C       1      m1     0.0311
   2776 C            7.8915    12.3812    14.4874 C       1      m1    -0.0089
   2777 C            8.4361    11.2212    15.1987 C       1      m1    -0.0340
   2778 C            8.4087    12.5628    13.1720 C       1      m1    -0.0537
   2779 C            9.3968    11.7814    12.6790 C       1      m1     0.2743
   2780 C            9.5927    14.2393    15.4685 C       1      m1     0.1963
   2781 O            9.9921    11.6627    11.2646 O       1      m1    -0.4878
   2782 C           10.1930    11.4850    13.9207 C       1      m1    -0.0084
   2783 C           10.9405    13.7275    15.3307 C       1      m1    -0.0424
   2784 C           11.1044    12.3267    14.6601 C       1      m1     0.0112
   2785 C           11.8799    14.7712    14.9886 C       1      m1     0.0260
   2786 C           12.0166    15.3112    13.7508 C       1      m1     0.0223
   2787 C           11.9763    11.4393    15.0353 C       1      m1     0.0124
   2788 C           13.8407    13.3175    11.6276 C       1      m1     0.0097
   2789 H           14.8436    12.9940    13.5579 H       1      m1     0.0252
   2790 C           14.9800    12.8533    12.4981 C       1      m1    -0.0102
   2791 B           15.0633   -15.3677    15.6192 B       2     BOX     0.0000
   2792 B          -15.0633   -15.3677    15.6192 B       2     BOX     0.0000
   2793 B          -15.0633    15.3677    15.6192 B       2     BOX     0.0000
   2794 B           15.0633    15.3677    15.6192 B       2     BOX     0.0000
   2795 B           15.0633   -15.3677   -15.6192 B       2     BOX     0.0000
   2796 B          -15.0633   -15.3677   -15.6192 B       2     BOX     0.0000
   2797 B          -15.0633    15.3677   -15.6192 B       2     BOX     0.0000
   2798 B           15.0633    15.3677   -15.6192 B       2     BOX     0.0000
@<TRIPOS>BOND
     1      1      3      1
     2      1      4      1
     3      2      3      1
     4      3      5      1
     5      4    384      1
     6      5      6      1
     7      5   2393      1
     8      6      7      1
     9      7      9      1
    10      7     65      1
    11      8      9      1
    12      9     10      1
    13     10     11      1
    14     11    343      1
    15     12     13      1
    16     13     18      1
    17     14   2408      1
    18     15     16      1
    19     15    393      1
    20     16     17      1
    21     17     18      1
    22     18     20      1
    23     19     75      1
    24     21     22      1
    25     21     23      1
    26     22     26      1
    27     22    396      1
    28     23     27      1
    29     24     25      1
    30     25     28      1
    31     25     80      1
    32     26     29      1
    33     26    403      1
    34     27     29      1
    35     27     30      1
    36     28     31      1
    37     29     32      1
    38     30     31      1
    39     30   2414      1
    40     32     33      1
    41     32     34      1
    42     33     35      1
    43     33    404      1
    44     36     39      1
    45     36     88      1
    46     37   2421      1
    47     37   2427      1
    48     38     40      1
    49     38     86      1
    50     39     40      1
    51     39     41      1
    52     40     42      1
    53     42     44      1
    54     42    412      1
    55     44     46      1
    56     45     46      1
    57     45     95      1
    58     45     96      1
    59     46     48      1
    60     47     48      1
    61     47    418      1
    62     48     49      1
    63     50     52      1
    64     51     52      1
    65     52     54      1
    66     52     55      1
    67     54    422      1
    68     54    423      1
    69     56     57      1
    70     56    103      1
    71     57     58      1
    72     58     59      1
    73     58    428      1
    74     59     61      1
    75     59    107      1
    76     60     62      1
    77     61     62      1
    78     61     63      1
    79     62     64      1
    80     63     66      1
    81     63    110      1
    82     64     65      1
    83     64     67      1
    84     65     68      1
    85     66     67      1
    86     66    113      1
    87     67     69      1
    88     70     72      1
    89     71     73      1
    90     73     74      1
    91     73    443      1
    92     74     75      1
    93     74     76      1
    94     76     79      1
    95     76    449      1
    96     77     78      1
    97     77    121      1
    98     83   2419      1
    99     83   2471      1
   100     84     85      1
   101     85     86      1
   102     85     88      1
   103     86    460      1
   104     87     89      1
   105     89     90      1
   106     89    130      1
   107     90     91      1
   108     90     92      1
   109     91    131      1
   110     93     94      1
   111     93    466      1
   112     94    136      1
   113     95     96      1
   114     96     97      1
   115     97    100      1
   116     98   2487      1
   117     98   2493      1
   118     99    100      1
   119    100    101      1
   120    102    479      1
   121    104    105      1
   122    105    106      1
   123    105    148      1
   124    107    109      1
   125    107    496      1
   126    108    109      1
   127    109    110      1
   128    110    111      1
   129    111    112      1
   130    111    113      1
   131    113    114      1
   132    115    119      1
   133    116    118      1
   134    116    162      1
   135    116    164      1
   136    117    164      1
   137    118    120      1
   138    118    509      1
   139    119    121      1
   140    122    124      1
   141    123    125      1
   142    124    125      1
   143    124    126      1
   144    125    128      1
   145    127    128      1
   146    128    129      1
   147    129    524      1
   148    130    131      1
   149    132    133      1
   150    133    134      1
   151    133    135      1
   152    134    192      1
   153    134    588      1
   154    135    136      1
   155    135    137      1
   156    136    138      1
   157    137    191      1
   158    138   2487      1
   159    139    141      1
   160    140    541      1
   161    141    142      1
   162    141    143      1
   163    142    199      1
   164    143    144      1
   165    144    544      1
   166    146    148      1
   167    147    150      1
   168    149    151      1
   169    150    152      1
   170    150    492      1
   171    151    153      1
   172    151    205      1
   173    152    153      1
   174    152    154      1
   175    153    155      1
   176    154    156      1
   177    157    158      1
   178    157    215      1
   179    157    563      1
   180    159    563      1
   181    161    162      1
   182    161    163      1
   183    162    506      1
   184    163    164      1
   185    164    168      1
   186    165    167      1
   187    166    167      1
   188    166    227      1
   189    166    235      1
   190    167    168      1
   191    168    170      1
   192    169    170      1
   193    170    172      1
   194    171    571      1
   195    172    173      1
   196    172    176      1
   197    173    175      1
   198    173    176      1
   199    174    178      1
   200    174    238      1
   201    174    241      1
   202    175    177      1
   203    177    179      1
   204    177    241      1
   205    179    180      1
   206    179    249      1
   207    181    183      1
   208    182    184      1
   209    183    186      1
   210    184    186      1
   211    184    587      1
   212    185   2597      1
   213    185   2601      1
   214    186    188      1
   215    187    257      1
   216    189    193      1
   217    190    193      1
   218    190    260      1
   219    191    194      1
   220    192    194      1
   221    192    195      1
   222    195    196      1
   223    195    536      1
   224    196    197      1
   225    196    198      1
   226    198    200      1
   227    198    599      1
   228    199    201      1
   229    202    203      1
   230    202    271      1
   231    204    205      1
   232    204    603      1
   233    204    606      1
   234    206    207      1
   235    206    209      1
   236    207    211      1
   237    208    209      1
   238    208    213      1
   239    208    277      1
   240    209    214      1
   241    210    212      1
   242    210    213      1
   243    210    608      1
   244    211    214      1
   245    211   2568      1
   246    212    215      1
   247    212    613      1
   248    213    217      1
   249    214    215      1
   250    214    216      1
   251    216    218      1
   252    216    219      1
   253    217    219      1
   254    217    279      1
   255    219    221      1
   256    220    619      1
   257    221    222      1
   258    221    282      1
   259    222    224      1
   260    222    225      1
   261    222   2631      1
   262    223    224      1
   263    224    230      1
   264    226    227      1
   265    227    229      1
   266    228    231      1
   267    228    625      1
   268    229    230      1
   269    229    231      1
   270    230    232      1
   271    230    233      1
   272    231    234      1
   273    233    235      1
   274    235    236      1
   275    236    238      1
   276    236    239      1
   277    237    240      1
   278    238    632      1
   279    239    240      1
   280    239    241      1
   281    240    242      1
   282    240    243      1
   283    242    245      1
   284    243    244      1
   285    243    246      1
   286    244    635      1
   287    244    637      1
   288    245    246      1
   289    246    248      1
   290    248    250      1
   291    248    301      1
   292    249    252      1
   293    250    254      1
   294    250    637      1
   295    251    252      1
   296    252    253      1
   297    254    256      1
   298    254    306      1
   299    255    643      1
   300    257    258      1
   301    257    260      1
   302    259    261      1
   303    260    262      1
   304    261    262      1
   305    261    264      1
   306    261    647      1
   307    262    263      1
   308    263    650      1
   309    264    649      1
   310    264    652      1
   311    265   2608      1
   312    265   2657      1
   313    266    267      1
   314    266    316      1
   315    266    319      1
   316    271    272      1
   317    273    274      1
   318    274    275      1
   319    274    328      1
   320    275    276      1
   321    278    280      1
   322    278    341      1
   323    280    281      1
   324    281    282      1
   325    281    283      1
   326    284    680      1
   327    285    286      1
   328    285    287      1
   329    288    351      1
   330    289    292      1
   331    290    291      1
   332    290    292      1
   333    291    351      1
   334    292    294      1
   335    293    689      1
   336    294    296      1
   337    294    297      1
   338    295    354      1
   339    297    298      1
   340    298    299      1
   341    298    358      1
   342    300   2708      1
   343    302    304      1
   344    303    305      1
   345    303    358      1
   346    303    362      1
   347    304    362      1
   348    305    308      1
   349    305    701      1
   350    306    307      1
   351    306    701      1
   352    308    310      1
   353    308    364      1
   354    309    311      1
   355    310    311      1
   356    310    313      1
   357    311    312      1
   358    313    314      1
   359    313    706      1
   360    314    316      1
   361    315   2716      1
   362    317    372      1
   363    317    709      1
   364    317    712      1
   365    318    319      1
   366    319    321      1
   367    320    715      1
   368    322    323      1
   369    322    324      1
   370    322    715      1
   371    325    326      1
   372    325    328      1
   373    326    329      1
   374    326    330      1
   375    329    330      1
   376    329    331      1
   377    334    336      1
   378    335    336      1
   379    336    342      1
   380    337    338      1
   381    338    339      1
   382    338    340      1
   383    340    341      1
   384    340    738      1
   385    341    344      1
   386    345    349      1
   387    345    744      1
   388    346    347      1
   389    347    680      1
   390    347    749      1
   391    348    349      1
   392    350    749      1
   393    351    352      1
   394    352    353      1
   395    354    356      1
   396    355    357      1
   397    357    359      1
   398    357    361      1
   399    358    696      1
   400    358    762      1
   401    360    361      1
   402    360    761      1
   403    361    363      1
   404    362    364      1
   405    363    365      1
   406    364    366      1
   407    365    366      1
   408    365    367      1
   409    366    369      1
   410    367    370      1
   411    368    767      1
   412    369    370      1
   413    369    371      1
   414    371    372      1
   415    373    375      1
   416    374    377      1
   417    375    377      1
   418    376    377      1
   419    379    382      1
   420    380    781      1
   421    382    383      1
   422    382    426      1
   423    384    387      1
   424    384    726      1
   425    385    728      1
   426    386    788      1
   427    388    438      1
   428    390    804      1
   429    392    393      1
   430    393    394      1
   431    394    395      1
   432    394    445      1
   433    395    397      1
   434    395    869      1
   435    397    398      1
   436    397    401      1
   437    399    400      1
   438    400    809      1
   439    401    402      1
   440    401    813      1
   441    403    404      1
   442    404    405      1
   443    406    407      1
   444    406    408      1
   445    407    408      1
   446    407    409      1
   447    408    459      1
   448    409    410      1
   449    410    411      1
   450    413    414      1
   451    413    831      1
   452    414    415      1
   453    415    417      1
   454    416    835      1
   455    417    419      1
   456    419    471      1
   457    419    472      1
   458    420    421      1
   459    421    422      1
   460    422    425      1
   461    423    481      1
   462    426    430      1
   463    427    431      1
   464    428    431      1
   465    428    488      1
   466    429    489      1
   467    431    432      1
   468    431    433      1
   469    433    434      1
   470    433    436      1
   471    433    437      1
   472    434    435      1
   473    435    497      1
   474    435    849      1
   475    437    438      1
   476    439    440      1
   477    439    503      1
   478    439    857      1
   479    440    442      1
   480    440    863      1
   481    441    442      1
   482    442    444      1
   483    443    445      1
   484    444    445      1
   485    444    446      1
   486    447    934      1
   487    448    449      1
   488    449    451      1
   489    450    876      1
   490    451    452      1
   491    451    453      1
   492    453    454      1
   493    454    457      1
   494    454    522      1
   495    455    456      1
   496    456    880      1
   497    456    884      1
   498    457    458      1
   499    458    460      1
   500    459    462      1
   501    459    887      1
   502    460    461      1
   503    463    464      1
   504    463    527      1
   505    464    890      1
   506    464    896      1
   507    465    466      1
   508    466    469      1
   509    466    470      1
   510    467    468      1
   511    467    896      1
   512    467    901      1
   513    468    470      1
   514    470    531      1
   515    472    475      1
   516    473    476      1
   517    473    540      1
   518    474    477      1
   519    474    960      1
   520    475    476      1
   521    476    479      1
   522    478    482      1
   523    478    911      1
   524    479    481      1
   525    480    484      1
   526    482    914      1
   527    483    484      1
   528    484    485      1
   529    485    545      1
   530    486    488      1
   531    487    489      1
   532    487    490      1
   533    488    489      1
   534    490    491      1
   535    490    493      1
   536    490    548      1
   537    491    492      1
   538    491    553      1
   539    492    494      1
   540    493    495      1
   541    494    496      1
   542    494    498      1
   543    495    497      1
   544    496    499      1
   545    497    500      1
   546    498    502      1
   547    498    557      1
   548    499    500      1
   549    499    501      1
   550    500    503      1
   551    503    504      1
   552    505    506      1
   553    505    508      1
   554    505    564      1
   555    506    509      1
   556    507    508      1
   557    507    511      1
   558    508    567      1
   559    509    510      1
   560    511    513      1
   561    512    515      1
   562    513    934      1
   563    513    935      1
   564    514    515      1
   565    515    516      1
   566    515    517      1
   567    517    518      1
   568    517    519      1
   569    518    520      1
   570    518    935      1
   571    519    571      1
   572    520    521      1
   573    520    940      1
   574    521    573      1
   575    523    940      1
   576    524    526      1
   577    525    949      1
   578    526    527      1
   579    526    528      1
   580    528    530      1
   581    529    530      1
   582    529    949      1
   583    529    952      1
   584    530    532      1
   585    531    533      1
   586    531    534      1
   587    532    535      1
   588    535    536      1
   589    535    539      1
   590    536    594      1
   591    537    538      1
   592    538    594      1
   593    538   1015      1
   594    540    541      1
   595    541    544      1
   596    542    543      1
   597    543    545      1
   598    543    546      1
   599    544    546      1
   600    545    966      1
   601    549    552      1
   602    549    605      1
   603    550    551      1
   604    550    553      1
   605    550    970      1
   606    551    552      1
   607    552    554      1
   608    553    555      1
   609    555    556      1
   610    556    557      1
   611    556    558      1
   612    558    559      1
   613    558    560      1
   614    560    563      1
   615    560    613      1
   616    561    614      1
   617    561    974      1
   618    561    978      1
   619    562    976      1
   620    563    617      1
   621    565    566      1
   622    566    617      1
   623    566    622      1
   624    567    568      1
   625    568    570      1
   626    569    570      1
   627    569    622      1
   628    569    626      1
   629    571    573      1
   630    572    574      1
   631    572    632      1
   632    573    575      1
   633    574    577      1
   634    574    578      1
   635    576    577      1
   636    576    997      1
   637    577    580      1
   638    579    945      1
   639    581    643      1
   640    582    584      1
   641    582   1000      1
   642    583    585      1
   643    584    586      1
   644    585    586      1
   645    585    587      1
   646    586    589      1
   647    587    590      1
   648    589    591      1
   649    589    592      1
   650    592    593      1
   651    593    595      1
   652    593    650      1
   653    594    596      1
   654    597    598      1
   655    598    599      1
   656    598    600      1
   657    599    601      1
   658    603    605      1
   659    604    606      1
   660    605    607      1
   661    606    608      1
   662    608    609      1
   663    609    610      1
   664    609    669      1
   665    610    611      1
   666    611    614      1
   667    611   1031      1
   668    612    613      1
   669    614    615      1
   670    615    616      1
   671    615   1032      1
   672    615   1033      1
   673    616    618      1
   674    617    619      1
   675    618    623      1
   676    618    676      1
   677    619    621      1
   678    620   1033      1
   679    621    622      1
   680    621    623      1
   681    623    624      1
   682    623    625      1
   683    625    679      1
   684    626    628      1
   685    626   1040      1
   686    627    630      1
   687    627   1043      1
   688    628    631      1
   689    629    630      1
   690    630    631      1
   691    630    688      1
   692    631    633      1
   693    632    633      1
   694    633    635      1
   695    634    688      1
   696    634    692      1
   697    634   1050      1
   698    636    639      1
   699    637    639      1
   700    638    640      1
   701    638    695      1
   702    639    642      1
   703    639    643      1
   704    640    641      1
   705    640   1055      1
   706    644    645      1
   707    645    646      1
   708    645    702      1
   709    646    647      1
   710    648    707      1
   711    648   1071      1
   712    651   1071      1
   713    652    655      1
   714    653    654      1
   715    654    656      1
   716    654    657      1
   717    655    656      1
   718    655    658      1
   719    656    659      1
   720    657    660      1
   721    657   1077      1
   722    659    663      1
   723    659    716      1
   724    660    661      1
   725    664    724      1
   726    664   1084      1
   727    665    668      1
   728    666    667      1
   729    667    668      1
   730    667    669      1
   731    668    670      1
   732    669    671      1
   733    670   1087      1
   734    671   1091      1
   735    672    738      1
   736    673    676      1
   737    674    675      1
   738    674    740      1
   739    675    677      1
   740    675   1094      1
   741    676    677      1
   742    676    679      1
   743    677    678      1
   744    680    682      1
   745    681   1102      1
   746    682    683      1
   747    682    750      1
   748    684    687      1
   749    685    686      1
   750    685    751      1
   751    685    754      1
   752    687    689      1
   753    687    690      1
   754    688    690      1
   755    689    691      1
   756    690    693      1
   757    692    693      1
   758    692    695      1
   759    693    694      1
   760    695   1114      1
   761    697   1109      1
   762    698    700      1
   763    699    700      1
   764    699    702      1
   765    700    701      1
   766    702   1117      1
   767    703    704      1
   768    704    705      1
   769    704   1123      1
   770    705    707      1
   771    705    708      1
   772    706    708      1
   773    706    709      1
   774    707   1130      1
   775    708    710      1
   776    709    771      1
   777    710    711      1
   778    710    714      1
   779    711    713      1
   780    711   1130      1
   781    714    715      1
   782    714    716      1
   783    716    717      1
   784    717    718      1
   785    717    719      1
   786    718   1133      1
   787    719    720      1
   788    719    779      1
   789    721    724      1
   790    722    725      1
   791    722   1137      1
   792    724    727      1
   793    725    727      1
   794    725    728      1
   795    727    729      1
   796    727   1138      1
   797    730    732      1
   798    731    732      1
   799    732    734      1
   800    732    738      1
   801    733    734      1
   802    734    735      1
   803    735    736      1
   804    736   1144      1
   805    737   1087      1
   806    738    740      1
   807    739    740      1
   808    741    742      1
   809    741    743      1
   810    742    744      1
   811    743    747      1
   812    743   1146      1
   813    744    745      1
   814    746    747      1
   815    746   1102      1
   816    747    748      1
   817    749    750      1
   818    750    751      1
   819    751    752      1
   820    752    753      1
   821    755    756      1
   822    756    757      1
   823    756    763      1
   824    756   1154      1
   825    757    758      1
   826    757    760      1
   827    758    759      1
   828    758    762      1
   829    760    761      1
   830    761    762      1
   831    764    766      1
   832    765    767      1
   833    766    767      1
   834    766    768      1
   835    768    770      1
   836    769    771      1
   837    770    772      1
   838    770    773      1
   839    771    772      1
   840    772    774      1
   841    772    775      1
   842    773    776      1
   843    775    776      1
   844    775    777      1
   845    776    778      1
   846    777    779      1
   847    781    782      1
   848    782    783      1
   849    783    784      1
   850    783    785      1
   851    785    787      1
   852    786    788      1
   853    787    792      1
   854    788    793      1
   855    788    850      1
   856    789    795      1
   857    790    791      1
   858    791    798      1
   859    791   1176      1
   860    792    794      1
   861    792    797      1
   862    793    794      1
   863    793    856      1
   864    795    796      1
   865    795   1179      1
   866    797    799      1
   867    798    799      1
   868    798   1182      1
   869    799    800      1
   870    800    802      1
   871    800    803      1
   872    801    804      1
   873    801    861      1
   874    801    866      1
   875    802   1182      1
   876    802   1187      1
   877    804    805      1
   878    805    807      1
   879    806    808      1
   880    806   1187      1
   881    807    808      1
   882    807    809      1
   883    808    810      1
   884    809    814      1
   885    810    812      1
   886    810    814      1
   887    811    815      1
   888    812   1195      1
   889    813    816      1
   890    813    872      1
   891    814    818      1
   892    815   1195      1
   893    815   1197      1
   894    817   1197      1
   895    819    821      1
   896    820    822      1
   897    821    822      1
   898    821    823      1
   899    822    825      1
   900    822   1211      1
   901    823    826      1
   902    824    828      1
   903    826    827      1
   904    827    828      1
   905    827    831      1
   906    828    898      1
   907    829   1215      1
   908    830    832      1
   909    830    895      1
   910    830   1215      1
   911    831    834      1
   912    833    834      1
   913    834    835      1
   914    835    838      1
   915    836    909      1
   916    837    838      1
   917    837    840      1
   918    837   1219      1
   919    838    841      1
   920    839    840      1
   921    840    842      1
   922    842   1225      1
   923    843    844      1
   924    844    845      1
   925    845    913      1
   926    845   1227      1
   927    846    848      1
   928    847   1230      1
   929    848    849      1
   930    849    920      1
   931    851    852      1
   932    852    855      1
   933    852   1237      1
   934    853    858      1
   935    853    923      1
   936    854    856      1
   937    855    858      1
   938    855    860      1
   939    856    861      1
   940    858    862      1
   941    859    860      1
   942    860    864      1
   943    862    865      1
   944    862    929      1
   945    862   1241      1
   946    864    865      1
   947    864    867      1
   948    865    868      1
   949    866    867      1
   950    866    869      1
   951    867    870      1
   952    868    871      1
   953    868   1248      1
   954    869    872      1
   955    870    871      1
   956    870    873      1
   957    871    875      1
   958    872    873      1
   959    873    877      1
   960    874    876      1
   961    874    934      1
   962    874    936      1
   963    875    878      1
   964    875   1255      1
   965    876    880      1
   966    879    881      1
   967    880    881      1
   968    881    883      1
   969    882    886      1
   970    882   1262      1
   971    882   1265      1
   972    883    885      1
   973    883    886      1
   974    884    887      1
   975    886    889      1
   976    887    888      1
   977    889    891      1
   978    889    892      1
   979    890    891      1
   980    891    893      1
   981    892    894      1
   982    892   1269      1
   983    893    894      1
   984    893    896      1
   985    894    897      1
   986    895    897      1
   987    895   1272      1
   988    897    899      1
   989    898    901      1
   990    899    900      1
   991    899    901      1
   992    899    903      1
   993    901    904      1
   994    902    905      1
   995    905    906      1
   996    905   1281      1
   997    906    907      1
   998    906    959      1
   999    908    909      1
  1000    909    911      1
  1001    910   1287      1
  1002    912    913      1
  1003    912    916      1
  1004    912   1287      1
  1005    913    914      1
  1006    915    916      1
  1007    915    968      1
  1008    917    918      1
  1009    917   1295      1
  1010    918    920      1
  1011    919    921      1
  1012    920    923      1
  1013    921    924      1
  1014    921   1300      1
  1015    922    925      1
  1016    923    924      1
  1017    924    926      1
  1018    925    927      1
  1019    925    975      1
  1020    926    927      1
  1021    926   1307      1
  1022    927    928      1
  1023    928    931      1
  1024    929    930      1
  1025    929   1307      1
  1026    931    932      1
  1027    931    985      1
  1028    932    933      1
  1029    933    989      1
  1030    937    939      1
  1031    938    940      1
  1032    939    941      1
  1033    939    942      1
  1034    940    942      1
  1035    941    998      1
  1036    942    943      1
  1037    943    945      1
  1038    943    946      1
  1039    944    946      1
  1040    945   1000      1
  1041    946    947      1
  1042    947   1002      1
  1043    947   1327      1
  1044    948    950      1
  1045    950    951      1
  1046    950   1327      1
  1047    951    953      1
  1048    951    954      1
  1049    953   1008      1
  1050    954    955      1
  1051    956    960      1
  1052    957    959      1
  1053    957   1336      1
  1054    958    961      1
  1055    959    961      1
  1056    960    961      1
  1057    961    963      1
  1058    962    964      1
  1059    963    964      1
  1060    963    966      1
  1061    964    965      1
  1062    964    967      1
  1063    965   1017      1
  1064    965   1020      1
  1065    966    968      1
  1066    967    969      1
  1067    967   1348      1
  1068    968    969      1
  1069    971    972      1
  1070    972    973      1
  1071    973    974      1
  1072    975    976      1
  1073    976    978      1
  1074    977    979      1
  1075    978    980      1
  1076    979    981      1
  1077    979   1362      1
  1078    979   1415      1
  1079    980    983      1
  1080    980   1033      1
  1081    981   1039      1
  1082    982    983      1
  1083    983    984      1
  1084    983    986      1
  1085    985    989      1
  1086    985   1367      1
  1087    986    988      1
  1088    986   1040      1
  1089    987    990      1
  1090    988    990      1
  1091    988   1039      1
  1092    988   1044      1
  1093    989   1374      1
  1094    990    991      1
  1095    990    992      1
  1096    991   1371      1
  1097    991   1374      1
  1098    991   1375      1
  1099    992    994      1
  1100    993    994      1
  1101    994    995      1
  1102    995    997      1
  1103    995   1051      1
  1104    996    997      1
  1105    998    999      1
  1106    998   1321      1
  1107   1000   1002      1
  1108   1001   1059      1
  1109   1002   1004      1
  1110   1003   1004      1
  1111   1004   1005      1
  1112   1004   1008      1
  1113   1006   1007      1
  1114   1007   1010      1
  1115   1007   1066      1
  1116   1008   1009      1
  1117   1009   1011      1
  1118   1009   1012      1
  1119   1010   1012      1
  1120   1010   1070      1
  1121   1012   1014      1
  1122   1013   1014      1
  1123   1013   1070      1
  1124   1014   1016      1
  1125   1015   1017      1
  1126   1016   1017      1
  1127   1016   1019      1
  1128   1018   1019      1
  1129   1018   1078      1
  1130   1019   1021      1
  1131   1022   1027      1
  1132   1023   1024      1
  1133   1023   1028      1
  1134   1024   1025      1
  1135   1025   1082      1
  1136   1026   1028      1
  1137   1028   1029      1
  1138   1029   1030      1
  1139   1029   1405      1
  1140   1034   1036      1
  1141   1034   1415      1
  1142   1034   1419      1
  1143   1035   1036      1
  1144   1035   1038      1
  1145   1035   1095      1
  1146   1037   1038      1
  1147   1038   1041      1
  1148   1038   1097      1
  1149   1039   1424      1
  1150   1040   1042      1
  1151   1041   1042      1
  1152   1041   1043      1
  1153   1045   1047      1
  1154   1046   1432      1
  1155   1047   1049      1
  1156   1047   1051      1
  1157   1048   1049      1
  1158   1049   1050      1
  1159   1052   1053      1
  1160   1053   1056      1
  1161   1053   1381      1
  1162   1054   1110      1
  1163   1056   1059      1
  1164   1057   1058      1
  1165   1058   1061      1
  1166   1058   1110      1
  1167   1058   1491      1
  1168   1059   1062      1
  1169   1060   1062      1
  1170   1061   1064      1
  1171   1061   1065      1
  1172   1062   1063      1
  1173   1062   1066      1
  1174   1065   1067      1
  1175   1065   1118      1
  1176   1066   1068      1
  1177   1067   1068      1
  1178   1068   1069      1
  1179   1069   1070      1
  1180   1069   1071      1
  1181   1072   1073      1
  1182   1072   1074      1
  1183   1072   1450      1
  1184   1073   1125      1
  1185   1074   1076      1
  1186   1074   1454      1
  1187   1075   1077      1
  1188   1076   1078      1
  1189   1076   1079      1
  1190   1077   1079      1
  1191   1079   1080      1
  1192   1081   1082      1
  1193   1081   1083      1
  1194   1083   1084      1
  1195   1083   1085      1
  1196   1086   1089      1
  1197   1087   1090      1
  1198   1088   1089      1
  1199   1088   1469      1
  1200   1089   1090      1
  1201   1090   1092      1
  1202   1091   1093      1
  1203   1093   1095      1
  1204   1095   1097      1
  1205   1096   1099      1
  1206   1097   1098      1
  1207   1097   1100      1
  1208   1099   1101      1
  1209   1099   1148      1
  1210   1101   1102      1
  1211   1101   1103      1
  1212   1104   1105      1
  1213   1105   1106      1
  1214   1105   1429      1
  1215   1105   1481      1
  1216   1106   1108      1
  1217   1107   1109      1
  1218   1108   1110      1
  1219   1109   1111      1
  1220   1109   1156      1
  1221   1110   1112      1
  1222   1111   1112      1
  1223   1111   1113      1
  1224   1112   1114      1
  1225   1113   1116      1
  1226   1113   1157      1
  1227   1114   1117      1
  1228   1115   1116      1
  1229   1115   1493      1
  1230   1116   1119      1
  1231   1117   1118      1
  1232   1118   1120      1
  1233   1119   1120      1
  1234   1119   1121      1
  1235   1119   1122      1
  1236   1120   1123      1
  1237   1124   1126      1
  1238   1124   1129      1
  1239   1124   1168      1
  1240   1125   1127      1
  1241   1126   1127      1
  1242   1126   1128      1
  1243   1127   1502      1
  1244   1129   1130      1
  1245   1129   1131      1
  1246   1132   1133      1
  1247   1134   1512      1
  1248   1135   1136      1
  1249   1135   1137      1
  1250   1137   1138      1
  1251   1138   1139      1
  1252   1141   1143      1
  1253   1142   1143      1
  1254   1142   1518      1
  1255   1143   1144      1
  1256   1145   1147      1
  1257   1147   1148      1
  1258   1147   1528      1
  1259   1148   1530      1
  1260   1149   1150      1
  1261   1150   1151      1
  1262   1150   1534      1
  1263   1150   1536      1
  1264   1151   1153      1
  1265   1152   1154      1
  1266   1153   1155      1
  1267   1154   1156      1
  1268   1155   1157      1
  1269   1155   1488      1
  1270   1157   1159      1
  1271   1157   1160      1
  1272   1158   1159      1
  1273   1159   1161      1
  1274   1161   1163      1
  1275   1162   1164      1
  1276   1163   1165      1
  1277   1164   1166      1
  1278   1164   1549      1
  1279   1167   1168      1
  1280   1169   1170      1
  1281   1169   1562      1
  1282   1170   1563      1
  1283   1171   1172      1
  1284   1171   1228      1
  1285   1172   1232      1
  1286   1173   1175      1
  1287   1174   1175      1
  1288   1175   1176      1
  1289   1177   1178      1
  1290   1178   1180      1
  1291   1178   1574      1
  1292   1178   1575      1
  1293   1179   1239      1
  1294   1180   1183      1
  1295   1180   1239      1
  1296   1181   1182      1
  1297   1183   1244      1
  1298   1183   1579      1
  1299   1184   1185      1
  1300   1185   1188      1
  1301   1186   1188      1
  1302   1187   1190      1
  1303   1188   1191      1
  1304   1189   1247      1
  1305   1191   1193      1
  1306   1191   1587      1
  1307   1192   1193      1
  1308   1193   1194      1
  1309   1195   1200      1
  1310   1196   1198      1
  1311   1196   1591      1
  1312   1197   1199      1
  1313   1198   1199      1
  1314   1198   1203      1
  1315   1199   1205      1
  1316   1200   1204      1
  1317   1201   1202      1
  1318   1204   1205      1
  1319   1205   1207      1
  1320   1206   1541      1
  1321   1207   1208      1
  1322   1207   1210      1
  1323   1207   1211      1
  1324   1209   1957      1
  1325   1211   1272      1
  1326   1212   1214      1
  1327   1213   1215      1
  1328   1214   1216      1
  1329   1215   1217      1
  1330   1216   1610      1
  1331   1217   1218      1
  1332   1217   1219      1
  1333   1218   1220      1
  1334   1220   1222      1
  1335   1220   1611      1
  1336   1221   1616      1
  1337   1222   1223      1
  1338   1223   1226      1
  1339   1224   1683      1
  1340   1225   1226      1
  1341   1225   1227      1
  1342   1229   1230      1
  1343   1230   1231      1
  1344   1232   1233      1
  1345   1233   1234      1
  1346   1234   1236      1
  1347   1235   1236      1
  1348   1235   1299      1
  1349   1235   1696      1
  1350   1236   1628      1
  1351   1238   1239      1
  1352   1240   1242      1
  1353   1242   1243      1
  1354   1242   1244      1
  1355   1243   1309      1
  1356   1244   1247      1
  1357   1245   1246      1
  1358   1246   1250      1
  1359   1246   1312      1
  1360   1247   1249      1
  1361   1249   1250      1
  1362   1249   1254      1
  1363   1249   1642      1
  1364   1250   1251      1
  1365   1250   1645      1
  1366   1252   1254      1
  1367   1253   1255      1
  1368   1254   1256      1
  1369   1254   1587      1
  1370   1255   1257      1
  1371   1256   1259      1
  1372   1257   1260      1
  1373   1257   1317      1
  1374   1258   1261      1
  1375   1258   1317      1
  1376   1258   1650      1
  1377   1259   1261      1
  1378   1259   1654      1
  1379   1260   1261      1
  1380   1261   1263      1
  1381   1264   1266      1
  1382   1265   1266      1
  1383   1265   1267      1
  1384   1266   1269      1
  1385   1268   1270      1
  1386   1269   1272      1
  1387   1270   1271      1
  1388   1270   1660      1
  1389   1271   1273      1
  1390   1273   1326      1
  1391   1273   1329      1
  1392   1274   1329      1
  1393   1275   1277      1
  1394   1276   1277      1
  1395   1277   1280      1
  1396   1278   1279      1
  1397   1279   1337      1
  1398   1279   1735      1
  1399   1280   1281      1
  1400   1280   1282      1
  1401   1281   1283      1
  1402   1284   1286      1
  1403   1285   1288      1
  1404   1286   1289      1
  1405   1286   1290      1
  1406   1286   1342      1
  1407   1287   1288      1
  1408   1288   1291      1
  1409   1289   1292      1
  1410   1289   1743      1
  1411   1292   1293      1
  1412   1292   1688      1
  1413   1294   1296      1
  1414   1295   1297      1
  1415   1296   1298      1
  1416   1296   1691      1
  1417   1297   1298      1
  1418   1298   1299      1
  1419   1300   1358      1
  1420   1301   1358      1
  1421   1302   1304      1
  1422   1303   1304      1
  1423   1304   1305      1
  1424   1304   1309      1
  1425   1305   1306      1
  1426   1305   1308      1
  1427   1306   1310      1
  1428   1306   1700      1
  1429   1307   1308      1
  1430   1308   1311      1
  1431   1309   1312      1
  1432   1310   1363      1
  1433   1310   1366      1
  1434   1311   1313      1
  1435   1311   1366      1
  1436   1312   1705      1
  1437   1313   1314      1
  1438   1313   1315      1
  1439   1316   1317      1
  1440   1318   1319      1
  1441   1319   1320      1
  1442   1319   1321      1
  1443   1320   1322      1
  1444   1321   1324      1
  1445   1322   1323      1
  1446   1323   1723      1
  1447   1325   1327      1
  1448   1327   1328      1
  1449   1329   1331      1
  1450   1330   1331      1
  1451   1331   1333      1
  1452   1332   1336      1
  1453   1333   1335      1
  1454   1333   1337      1
  1455   1333   1734      1
  1456   1334   1395      1
  1457   1336   1338      1
  1458   1337   1338      1
  1459   1338   1342      1
  1460   1339   1340      1
  1461   1339   1397      1
  1462   1339   1741      1
  1463   1340   1343      1
  1464   1341   1343      1
  1465   1342   1344      1
  1466   1343   1346      1
  1467   1345   1347      1
  1468   1345   1741      1
  1469   1345   1747      1
  1470   1346   1347      1
  1471   1346   1348      1
  1472   1349   1351      1
  1473   1350   1352      1
  1474   1350   1750      1
  1475   1351   1352      1
  1476   1351   1353      1
  1477   1351   1403      1
  1478   1352   1354      1
  1479   1353   1405      1
  1480   1354   1355      1
  1481   1354   1357      1
  1482   1355   1693      1
  1483   1356   1357      1
  1484   1357   1358      1
  1485   1359   1756      1
  1486   1360   1362      1
  1487   1361   1362      1
  1488   1362   1364      1
  1489   1363   1365      1
  1490   1363   1759      1
  1491   1364   1367      1
  1492   1364   1368      1
  1493   1365   1368      1
  1494   1365   1369      1
  1495   1366   1368      1
  1496   1368   1370      1
  1497   1369   1420      1
  1498   1369   1766      1
  1499   1371   1373      1
  1500   1372   1373      1
  1501   1373   1428      1
  1502   1376   1377      1
  1503   1377   1378      1
  1504   1377   1380      1
  1505   1378   1379      1
  1506   1378   1428      1
  1507   1378   1433      1
  1508   1379   1381      1
  1509   1380   1382      1
  1510   1381   1384      1
  1511   1382   1385      1
  1512   1383   1384      1
  1513   1384   1386      1
  1514   1384   1387      1
  1515   1385   1388      1
  1516   1388   1390      1
  1517   1389   1391      1
  1518   1389   1444      1
  1519   1390   1391      1
  1520   1391   1393      1
  1521   1392   1394      1
  1522   1392   1446      1
  1523   1393   1394      1
  1524   1393   1395      1
  1525   1394   1396      1
  1526   1395   1397      1
  1527   1396   1398      1
  1528   1396   1399      1
  1529   1397   1399      1
  1530   1398   1454      1
  1531   1399   1400      1
  1532   1401   1463      1
  1533   1402   1797      1
  1534   1404   1407      1
  1535   1406   1407      1
  1536   1406   1463      1
  1537   1406   1467      1
  1538   1407   1408      1
  1539   1408   1409      1
  1540   1408   1803      1
  1541   1409   1413      1
  1542   1410   1412      1
  1543   1411   1412      1
  1544   1412   1413      1
  1545   1412   1415      1
  1546   1413   1416      1
  1547   1414   1417      1
  1548   1416   1417      1
  1549   1416   1419      1
  1550   1417   1420      1
  1551   1417   1811      1
  1552   1418   1419      1
  1553   1419   1421      1
  1554   1420   1422      1
  1555   1421   1423      1
  1556   1421   1474      1
  1557   1422   1423      1
  1558   1422   1818      1
  1559   1423   1425      1
  1560   1425   1426      1
  1561   1426   1427      1
  1562   1426   1431      1
  1563   1427   1428      1
  1564   1428   1432      1
  1565   1429   1430      1
  1566   1430   1432      1
  1567   1431   1483      1
  1568   1431   1827      1
  1569   1434   1436      1
  1570   1435   1832      1
  1571   1436   1438      1
  1572   1436   1439      1
  1573   1437   1439      1
  1574   1437   1440      1
  1575   1437   1832      1
  1576   1438   1491      1
  1577   1439   1441      1
  1578   1440   1444      1
  1579   1440   1836      1
  1580   1441   1443      1
  1581   1441   1445      1
  1582   1442   1896      1
  1583   1444   1445      1
  1584   1445   1446      1
  1585   1446   1449      1
  1586   1447   1845      1
  1587   1448   1449      1
  1588   1449   1450      1
  1589   1450   1452      1
  1590   1451   1452      1
  1591   1451   1453      1
  1592   1451   1845      1
  1593   1453   1455      1
  1594   1453   1503      1
  1595   1454   1456      1
  1596   1455   1855      1
  1597   1457   1855      1
  1598   1458   1792      1
  1599   1459   1460      1
  1600   1459   1856      1
  1601   1459   1917      1
  1602   1462   1514      1
  1603   1463   1464      1
  1604   1464   1465      1
  1605   1465   1466      1
  1606   1466   1467      1
  1607   1466   1469      1
  1608   1467   1468      1
  1609   1468   1868      1
  1610   1469   1470      1
  1611   1471   1472      1
  1612   1472   1473      1
  1613   1472   1870      1
  1614   1473   1525      1
  1615   1473   1871      1
  1616   1474   1476      1
  1617   1475   1476      1
  1618   1476   1477      1
  1619   1477   1478      1
  1620   1478   1479      1
  1621   1478   1530      1
  1622   1479   1482      1
  1623   1479   1536      1
  1624   1480   1483      1
  1625   1483   1484      1
  1626   1484   1489      1
  1627   1484   1888      1
  1628   1485   1486      1
  1629   1486   1487      1
  1630   1486   1490      1
  1631   1487   1488      1
  1632   1489   1490      1
  1633   1489   1893      1
  1634   1490   1492      1
  1635   1491   1493      1
  1636   1493   1495      1
  1637   1494   1495      1
  1638   1494   1497      1
  1639   1495   1498      1
  1640   1496   1497      1
  1641   1496   1902      1
  1642   1497   1499      1
  1643   1498   1499      1
  1644   1499   1500      1
  1645   1500   1502      1
  1646   1500   1503      1
  1647   1501   1503      1
  1648   1502   1504      1
  1649   1503   1505      1
  1650   1504   1505      1
  1651   1504   1506      1
  1652   1504   1507      1
  1653   1505   1508      1
  1654   1505   1509      1
  1655   1507   1559      1
  1656   1510   1860      1
  1657   1511   1512      1
  1658   1513   1563      1
  1659   1515   1516      1
  1660   1516   1517      1
  1661   1517   1518      1
  1662   1518   1519      1
  1663   1520   1521      1
  1664   1521   1522      1
  1665   1521   1523      1
  1666   1523   1525      1
  1667   1525   1526      1
  1668   1525   1933      1
  1669   1527   1528      1
  1670   1528   1531      1
  1671   1529   1934      1
  1672   1530   1531      1
  1673   1531   1533      1
  1674   1532   1533      1
  1675   1533   1535      1
  1676   1534   1535      1
  1677   1535   1537      1
  1678   1537   1539      1
  1679   1538   1947      1
  1680   1539   1540      1
  1681   1539   1946      1
  1682   1542   1543      1
  1683   1543   1545      1
  1684   1544   1545      1
  1685   1545   1546      1
  1686   1546   1547      1
  1687   1546   1548      1
  1688   1547   1957      1
  1689   1547   1960      1
  1690   1549   1550      1
  1691   1550   1551      1
  1692   1550   1553      1
  1693   1552   1553      1
  1694   1553   1554      1
  1695   1554   1555      1
  1696   1554   1556      1
  1697   1555   1908      1
  1698   1555   1968      1
  1699   1556   1557      1
  1700   1556   1558      1
  1701   1557   1560      1
  1702   1558   1559      1
  1703   1558   1561      1
  1704   1560   1561      1
  1705   1560   1562      1
  1706   1561   1563      1
  1707   1564   1567      1
  1708   1565   2036      1
  1709   1566   1567      1
  1710   1567   1568      1
  1711   1569   1571      1
  1712   1570   1571      1
  1713   1571   1573      1
  1714   1571   1574      1
  1715   1572   1988      1
  1716   1574   1632      1
  1717   1576   1577      1
  1718   1577   1578      1
  1719   1577   1579      1
  1720   1578   1580      1
  1721   1579   1634      1
  1722   1580   1999      1
  1723   1581   1583      1
  1724   1582   1584      1
  1725   1583   1586      1
  1726   1583   1942      1
  1727   1584   1586      1
  1728   1584   1588      1
  1729   1585   1587      1
  1730   1586   1589      1
  1731   1587   1591      1
  1732   1588   1592      1
  1733   1588   1646      1
  1734   1590   2008      1
  1735   1591   1592      1
  1736   1592   1593      1
  1737   1593   1596      1
  1738   1593   1652      1
  1739   1594   1595      1
  1740   1595   1596      1
  1741   1595   1597      1
  1742   1596   1598      1
  1743   1597   2015      1
  1744   1598   2011      1
  1745   1598   2015      1
  1746   1599   1601      1
  1747   1600   1601      1
  1748   1601   1602      1
  1749   1601   1664      1
  1750   1603   2020      1
  1751   1604   1605      1
  1752   1605   1606      1
  1753   1605   1607      1
  1754   1607   1609      1
  1755   1607   1610      1
  1756   1608   1667      1
  1757   1610   1611      1
  1758   1610   1965      1
  1759   1611   1613      1
  1760   1612   1614      1
  1761   1613   1614      1
  1762   1613   1615      1
  1763   1615   1616      1
  1764   1615   1618      1
  1765   1616   1683      1
  1766   1617   1618      1
  1767   1617   2028      1
  1768   1618   1619      1
  1769   1619   1620      1
  1770   1619   1685      1
  1771   1620   1621      1
  1772   1622   1687      1
  1773   1623   1624      1
  1774   1623   1626      1
  1775   1625   1626      1
  1776   1625   1689      1
  1777   1625   1692      1
  1778   1626   1627      1
  1779   1627   1628      1
  1780   1628   1630      1
  1781   1629   1631      1
  1782   1630   1632      1
  1783   1630   1633      1
  1784   1631   1633      1
  1785   1631   2053      1
  1786   1632   1634      1
  1787   1633   1635      1
  1788   1634   1637      1
  1789   1635   1636      1
  1790   1635   1637      1
  1791   1636   1638      1
  1792   1636   2053      1
  1793   1637   1639      1
  1794   1638   1640      1
  1795   1638   2058      1
  1796   1640   1641      1
  1797   1641   1644      1
  1798   1643   1646      1
  1799   1644   1645      1
  1800   1644   1709      1
  1801   1645   1647      1
  1802   1645   1650      1
  1803   1646   1648      1
  1804   1648   1651      1
  1805   1649   1651      1
  1806   1650   1712      1
  1807   1651   1653      1
  1808   1653   1655      1
  1809   1655   1658      1
  1810   1656   1659      1
  1811   1657   2074      1
  1812   1658   1659      1
  1813   1658   1661      1
  1814   1659   1660      1
  1815   1661   1662      1
  1816   1661   1725      1
  1817   1662   1663      1
  1818   1662   1665      1
  1819   1663   1664      1
  1820   1663   2076      1
  1821   1664   1667      1
  1822   1666   1731      1
  1823   1667   1670      1
  1824   1668   1672      1
  1825   1669   1673      1
  1826   1670   1672      1
  1827   1670   1673      1
  1828   1671   1673      1
  1829   1672   1674      1
  1830   1672   2087      1
  1831   1673   1675      1
  1832   1674   1676      1
  1833   1674   1731      1
  1834   1676   1679      1
  1835   1676   1738      1
  1836   1677   1679      1
  1837   1677   2028      1
  1838   1677   2087      1
  1839   1678   1681      1
  1840   1679   1682      1
  1841   1679   2091      1
  1842   1680   1681      1
  1843   1680   1738      1
  1844   1680   1743      1
  1845   1681   1684      1
  1846   1683   1684      1
  1847   1684   1686      1
  1848   1685   1687      1
  1849   1685   2034      1
  1850   1686   1687      1
  1851   1686   1688      1
  1852   1688   1748      1
  1853   1689   1690      1
  1854   1691   1693      1
  1855   1691   1694      1
  1856   1692   1694      1
  1857   1692   1695      1
  1858   1694   1696      1
  1859   1695   2107      1
  1860   1696   1697      1
  1861   1698   1700      1
  1862   1699   1701      1
  1863   1699   1702      1
  1864   1700   1701      1
  1865   1701   1704      1
  1866   1702   1703      1
  1867   1702   2113      1
  1868   1703   1704      1
  1869   1703   2119      1
  1870   1704   1706      1
  1871   1707   1708      1
  1872   1708   1709      1
  1873   1708   1710      1
  1874   1709   1712      1
  1875   1710   1711      1
  1876   1711   1771      1
  1877   1711   2124      1
  1878   1712   1714      1
  1879   1713   1714      1
  1880   1713   1715      1
  1881   1714   1716      1
  1882   1715   1717      1
  1883   1715   1775      1
  1884   1717   1718      1
  1885   1717   2129      1
  1886   1718   1720      1
  1887   1718   1777      1
  1888   1719   1721      1
  1889   1720   1724      1
  1890   1721   1723      1
  1891   1721   1724      1
  1892   1721   1725      1
  1893   1722   1723      1
  1894   1724   1727      1
  1895   1725   1726      1
  1896   1727   1729      1
  1897   1727   2137      1
  1898   1728   1730      1
  1899   1729   1730      1
  1900   1730   1734      1
  1901   1731   1733      1
  1902   1731   1735      1
  1903   1732   2144      1
  1904   1734   1735      1
  1905   1736   1739      1
  1906   1737   1741      1
  1907   1738   1739      1
  1908   1739   1740      1
  1909   1740   1741      1
  1910   1740   1744      1
  1911   1742   2154      1
  1912   1743   1745      1
  1913   1744   1745      1
  1914   1744   1747      1
  1915   1745   1748      1
  1916   1746   2154      1
  1917   1749   1751      1
  1918   1750   1752      1
  1919   1751   1752      1
  1920   1751   2158      1
  1921   1751   2160      1
  1922   1752   1753      1
  1923   1753   1754      1
  1924   1754   1755      1
  1925   1755   1756      1
  1926   1755   1808      1
  1927   1756   1759      1
  1928   1757   1758      1
  1929   1757   1806      1
  1930   1757   1812      1
  1931   1759   1760      1
  1932   1761   1763      1
  1933   1762   1763      1
  1934   1762   1812      1
  1935   1762   1815      1
  1936   1763   1765      1
  1937   1764   2169      1
  1938   1765   2169      1
  1939   1765   2173      1
  1940   1766   1768      1
  1941   1766   1818      1
  1942   1767   1768      1
  1943   1768   1770      1
  1944   1769   1771      1
  1945   1770   1772      1
  1946   1770   1773      1
  1947   1771   1772      1
  1948   1772   2177      1
  1949   1773   1821      1
  1950   1773   1824      1
  1951   1774   1828      1
  1952   1776   1777      1
  1953   1777   2185      1
  1954   1778   1836      1
  1955   1779   1780      1
  1956   1780   1781      1
  1957   1780   2193      1
  1958   1781   1839      1
  1959   1781   1841      1
  1960   1782   1841      1
  1961   1783   1784      1
  1962   1783   2197      1
  1963   1784   1785      1
  1964   1785   1786      1
  1965   1785   1849      1
  1966   1786   1788      1
  1967   1787   2205      1
  1968   1787   2211      1
  1969   1788   1789      1
  1970   1788   1790      1
  1971   1789   1792      1
  1972   1789   1851      1
  1973   1790   1791      1
  1974   1790   1794      1
  1975   1792   1794      1
  1976   1792   1859      1
  1977   1793   2211      1
  1978   1795   1796      1
  1979   1795   1798      1
  1980   1796   2218      1
  1981   1797   1799      1
  1982   1798   1799      1
  1983   1798   1861      1
  1984   1800   1802      1
  1985   1801   1803      1
  1986   1802   1804      1
  1987   1802   1806      1
  1988   1803   1804      1
  1989   1803   1807      1
  1990   1804   1808      1
  1991   1805   1807      1
  1992   1807   1810      1
  1993   1807   1868      1
  1994   1808   1811      1
  1995   1809   2231      1
  1996   1810   1813      1
  1997   1810   1872      1
  1998   1811   1813      1
  1999   1812   2231      1
  2000   1813   1814      1
  2001   1816   1817      1
  2002   1816   1878      1
  2003   1816   2239      1
  2004   1818   1819      1
  2005   1820   1822      1
  2006   1822   1826      1
  2007   1822   2240      1
  2008   1823   1824      1
  2009   1823   1827      1
  2010   1824   1828      1
  2011   1825   1826      1
  2012   1826   1830      1
  2013   1827   1829      1
  2014   1828   1831      1
  2015   1828   2243      1
  2016   1830   2248      1
  2017   1831   1833      1
  2018   1831   1834      1
  2019   1832   1834      1
  2020   1833   1838      1
  2021   1833   2249      1
  2022   1834   1836      1
  2023   1835   1891      1
  2024   1835   2248      1
  2025   1835   2251      1
  2026   1837   1838      1
  2027   1838   1839      1
  2028   1838   2251      1
  2029   1839   2192      1
  2030   1840   1842      1
  2031   1841   1842      1
  2032   1842   1844      1
  2033   1843   2259      1
  2034   1844   1845      1
  2035   1844   1846      1
  2036   1847   1848      1
  2037   1848   1849      1
  2038   1848   1850      1
  2039   1849   1851      1
  2040   1850   1852      1
  2041   1850   1853      1
  2042   1851   1853      1
  2043   1852   1910      1
  2044   1852   1914      1
  2045   1853   1855      1
  2046   1854   1857      1
  2047   1855   1856      1
  2048   1856   1914      1
  2049   1857   1858      1
  2050   1857   2271      1
  2051   1858   1859      1
  2052   1860   1917      1
  2053   1861   1863      1
  2054   1862   1863      1
  2055   1862   1866      1
  2056   1863   1865      1
  2057   1864   1865      1
  2058   1866   1918      1
  2059   1866   1923      1
  2060   1867   1923      1
  2061   1868   1870      1
  2062   1869   1871      1
  2063   1870   1872      1
  2064   1871   1873      1
  2065   1872   1875      1
  2066   1873   1877      1
  2067   1873   1931      1
  2068   1874   1878      1
  2069   1874   2291      1
  2070   1876   1878      1
  2071   1877   1879      1
  2072   1877   1937      1
  2073   1880   1881      1
  2074   1880   1937      1
  2075   1880   2295      1
  2076   1881   1884      1
  2077   1881   1939      1
  2078   1882   1883      1
  2079   1883   1884      1
  2080   1883   1886      1
  2081   1884   1885      1
  2082   1885   1887      1
  2083   1885   1945      1
  2084   1886   1888      1
  2085   1887   1889      1
  2086   1888   1889      1
  2087   1889   1890      1
  2088   1891   1892      1
  2089   1892   1893      1
  2090   1893   1896      1
  2091   1894   1954      1
  2092   1895   1897      1
  2093   1896   1898      1
  2094   1897   1899      1
  2095   1897   2312      1
  2096   1898   1899      1
  2097   1898   1901      1
  2098   1899   1900      1
  2099   1900   1902      1
  2100   1900   1959      1
  2101   1902   1903      1
  2102   1903   1906      1
  2103   1903   1963      1
  2104   1904   1964      1
  2105   1905   2320      1
  2106   1906   1907      1
  2107   1906   1908      1
  2108   1907   1911      1
  2109   1908   1971      1
  2110   1909   1912      1
  2111   1910   1912      1
  2112   1910   2323      1
  2113   1911   1913      1
  2114   1911   1971      1
  2115   1912   1913      1
  2116   1913   1915      1
  2117   1914   1916      1
  2118   1918   1920      1
  2119   1919   1920      1
  2120   1919   1921      1
  2121   1920   1922      1
  2122   1921   1925      1
  2123   1921   2337      1
  2124   1922   1923      1
  2125   1922   1924      1
  2126   1924   1925      1
  2127   1924   1927      1
  2128   1925   1926      1
  2129   1927   1929      1
  2130   1928   1931      1
  2131   1929   1932      1
  2132   1930   1931      1
  2133   1930   2345      1
  2134   1930   2348      1
  2135   1932   1933      1
  2136   1933   1934      1
  2137   1934   1935      1
  2138   1935   1936      1
  2139   1936   1938      1
  2140   1937   2350      1
  2141   1938   1940      1
  2142   1938   2352      1
  2143   1940   1941      1
  2144   1940   2354      1
  2145   1940   2355      1
  2146   1943   1946      1
  2147   1944   1945      1
  2148   1945   1948      1
  2149   1945   1949      1
  2150   1946   1947      1
  2151   1946   1950      1
  2152   1947   1949      1
  2153   1948   2360      1
  2154   1948   2364      1
  2155   1949   1951      1
  2156   1953   1954      1
  2157   1953   2364      1
  2158   1953   2369      1
  2159   1954   1956      1
  2160   1955   1956      1
  2161   1955   1957      1
  2162   1956   1958      1
  2163   1958   1959      1
  2164   1958   1960      1
  2165   1959   1961      1
  2166   1960   1962      1
  2167   1961   1964      1
  2168   1964   1967      1
  2169   1966   2377      1
  2170   1967   1970      1
  2171   1967   2377      1
  2172   1968   1969      1
  2173   1970   1972      1
  2174   1970   2379      1
  2175   1971   1973      1
  2176   1973   1976      1
  2177   1974   1977      1
  2178   1975   1978      1
  2179   1976   1977      1
  2180   1977   1978      1
  2181   1978   1979      1
  2182   1979   2386      1
  2183   1980   1982      1
  2184   1981   1982      1
  2185   1982   1985      1
  2186   1983   2340      1
  2187   1984   2041      1
  2188   1985   1986      1
  2189   1985   1987      1
  2190   1986   1990      1
  2191   1986   2391      1
  2192   1987   1989      1
  2193   1988   1989      1
  2194   1989   1992      1
  2195   1990   1992      1
  2196   1990   2394      1
  2197   1991   1992      1
  2198   1992   1994      1
  2199   1993   1995      1
  2200   1993   1996      1
  2201   1994   1995      1
  2202   1994   1997      1
  2203   1995   1996      1
  2204   1996   2055      1
  2205   1997   2000      1
  2206   1997   2397      1
  2207   1998   1999      1
  2208   2001   2002      1
  2209   2002   2003      1
  2210   2002   2059      1
  2211   2003   2005      1
  2212   2003   2059      1
  2213   2004   2005      1
  2214   2005   2007      1
  2215   2005   2009      1
  2216   2006   2008      1
  2217   2009   2064      1
  2218   2009   2065      1
  2219   2012   2416      1
  2220   2012   2418      1
  2221   2013   2014      1
  2222   2013   2016      1
  2223   2014   2018      1
  2224   2014   2418      1
  2225   2015   2017      1
  2226   2016   2019      1
  2227   2016   2071      1
  2228   2018   2019      1
  2229   2018   2423      1
  2230   2019   2078      1
  2231   2020   2021      1
  2232   2021   2022      1
  2233   2021   2023      1
  2234   2023   2024      1
  2235   2023   2025      1
  2236   2025   2026      1
  2237   2027   2030      1
  2238   2028   2088      1
  2239   2029   2032      1
  2240   2029   2088      1
  2241   2030   2031      1
  2242   2030   2032      1
  2243   2030   2441      1
  2244   2032   2440      1
  2245   2033   2037      1
  2246   2033   2441      1
  2247   2034   2036      1
  2248   2034   2095      1
  2249   2035   2037      1
  2250   2035   2094      1
  2251   2035   2496      1
  2252   2038   2039      1
  2253   2038   2099      1
  2254   2039   2040      1
  2255   2039   2042      1
  2256   2040   2041      1
  2257   2041   2045      1
  2258   2042   2043      1
  2259   2042   2044      1
  2260   2043   2099      1
  2261   2044   2045      1
  2262   2044   2046      1
  2263   2045   2047      1
  2264   2046   2048      1
  2265   2046   2447      1
  2266   2047   2050      1
  2267   2048   2050      1
  2268   2048   2052      1
  2269   2049   2051      1
  2270   2050   2055      1
  2271   2051   2053      1
  2272   2051   2054      1
  2273   2051   2112      1
  2274   2052   2451      1
  2275   2052   2453      1
  2276   2055   2056      1
  2277   2057   2060      1
  2278   2060   2061      1
  2279   2060   2459      1
  2280   2061   2062      1
  2281   2062   2063      1
  2282   2062   2120      1
  2283   2064   2409      1
  2284   2065   2067      1
  2285   2065   2068      1
  2286   2066   2067      1
  2287   2067   2069      1
  2288   2070   2073      1
  2289   2070   2469      1
  2290   2071   2074      1
  2291   2072   2073      1
  2292   2072   2131      1
  2293   2072   2132      1
  2294   2073   2075      1
  2295   2074   2076      1
  2296   2076   2077      1
  2297   2076   2079      1
  2298   2077   2133      1
  2299   2077   2138      1
  2300   2080   2138      1
  2301   2080   2142      1
  2302   2081   2082      1
  2303   2082   2086      1
  2304   2082   2087      1
  2305   2083   2085      1
  2306   2083   2142      1
  2307   2084   2086      1
  2308   2086   2088      1
  2309   2089   2090      1
  2310   2090   2092      1
  2311   2090   2151      1
  2312   2090   2553      1
  2313   2093   2094      1
  2314   2094   2095      1
  2315   2097   2101      1
  2316   2098   2099      1
  2317   2098   2100      1
  2318   2100   2103      1
  2319   2100   2502      1
  2320   2101   2104      1
  2321   2101   2159      1
  2322   2102   2104      1
  2323   2103   2105      1
  2324   2103   2506      1
  2325   2104   2106      1
  2326   2105   2110      1
  2327   2105   2506      1
  2328   2106   2108      1
  2329   2106   2109      1
  2330   2107   2109      1
  2331   2109   2112      1
  2332   2110   2111      1
  2333   2111   2112      1
  2334   2111   2114      1
  2335   2112   2113      1
  2336   2113   2115      1
  2337   2114   2115      1
  2338   2115   2116      1
  2339   2116   2117      1
  2340   2116   2119      1
  2341   2117   2118      1
  2342   2117   2171      1
  2343   2120   2123      1
  2344   2121   2122      1
  2345   2121   2520      1
  2346   2122   2175      1
  2347   2122   2179      1
  2348   2123   2125      1
  2349   2125   2127      1
  2350   2125   2128      1
  2351   2126   2127      1
  2352   2127   2129      1
  2353   2128   2527      1
  2354   2130   2132      1
  2355   2132   2133      1
  2356   2134   2135      1
  2357   2135   2136      1
  2358   2135   2191      1
  2359   2136   2137      1
  2360   2137   2140      1
  2361   2138   2140      1
  2362   2139   2198      1
  2363   2140   2141      1
  2364   2141   2142      1
  2365   2141   2143      1
  2366   2143   2144      1
  2367   2143   2145      1
  2368   2144   2205      1
  2369   2145   2146      1
  2370   2145   2200      1
  2371   2146   2147      1
  2372   2146   2549      1
  2373   2147   2149      1
  2374   2147   2150      1
  2375   2148   2149      1
  2376   2149   2151      1
  2377   2150   2550      1
  2378   2150   2553      1
  2379   2151   2153      1
  2380   2152   2155      1
  2381   2153   2154      1
  2382   2153   2156      1
  2383   2155   2211      1
  2384   2155   2216      1
  2385   2158   2159      1
  2386   2158   2217      1
  2387   2159   2161      1
  2388   2160   2223      1
  2389   2162   2226      1
  2390   2163   2164      1
  2391   2163   2165      1
  2392   2164   2166      1
  2393   2164   2569      1
  2394   2166   2168      1
  2395   2166   2628      1
  2396   2167   2168      1
  2397   2168   2170      1
  2398   2169   2171      1
  2399   2170   2172      1
  2400   2170   2174      1
  2401   2171   2175      1
  2402   2172   2633      1
  2403   2174   2175      1
  2404   2175   2176      1
  2405   2176   2177      1
  2406   2176   2180      1
  2407   2177   2178      1
  2408   2178   2243      1
  2409   2179   2180      1
  2410   2179   2181      1
  2411   2180   2182      1
  2412   2183   2244      1
  2413   2184   2186      1
  2414   2184   2187      1
  2415   2184   2593      1
  2416   2187   2190      1
  2417   2187   2532      1
  2418   2188   2191      1
  2419   2189   2193      1
  2420   2190   2191      1
  2421   2190   2538      1
  2422   2191   2194      1
  2423   2193   2195      1
  2424   2194   2195      1
  2425   2194   2196      1
  2426   2195   2197      1
  2427   2196   2198      1
  2428   2196   2199      1
  2429   2197   2258      1
  2430   2198   2200      1
  2431   2199   2202      1
  2432   2199   2599      1
  2433   2200   2202      1
  2434   2201   2203      1
  2435   2202   2204      1
  2436   2202   2604      1
  2437   2203   2204      1
  2438   2203   2206      1
  2439   2204   2207      1
  2440   2206   2208      1
  2441   2206   2267      1
  2442   2207   2208      1
  2443   2207   2209      1
  2444   2208   2267      1
  2445   2210   2212      1
  2446   2212   2215      1
  2447   2212   2611      1
  2448   2213   2214      1
  2449   2213   2215      1
  2450   2213   2268      1
  2451   2214   2215      1
  2452   2218   2221      1
  2453   2218   2223      1
  2454   2219   2221      1
  2455   2219   2278      1
  2456   2219   2283      1
  2457   2220   2222      1
  2458   2221   2225      1
  2459   2222   2620      1
  2460   2222   2622      1
  2461   2223   2227      1
  2462   2224   2226      1
  2463   2224   2622      1
  2464   2225   2227      1
  2465   2225   2228      1
  2466   2226   2227      1
  2467   2227   2229      1
  2468   2228   2230      1
  2469   2228   2283      1
  2470   2230   2232      1
  2471   2230   2286      1
  2472   2231   2233      1
  2473   2232   2233      1
  2474   2232   2235      1
  2475   2233   2236      1
  2476   2234   2235      1
  2477   2235   2237      1
  2478   2235   2287      1
  2479   2237   2238      1
  2480   2237   2239      1
  2481   2238   2637      1
  2482   2240   2241      1
  2483   2241   2242      1
  2484   2242   2640      1
  2485   2243   2244      1
  2486   2244   2249      1
  2487   2245   2246      1
  2488   2246   2645      1
  2489   2247   2248      1
  2490   2249   2250      1
  2491   2251   2252      1
  2492   2252   2253      1
  2493   2253   2310      1
  2494   2254   2255      1
  2495   2255   2257      1
  2496   2255   2651      1
  2497   2256   2310      1
  2498   2257   2258      1
  2499   2257   2599      1
  2500   2258   2260      1
  2501   2259   2262      1
  2502   2259   2314      1
  2503   2259   2320      1
  2504   2260   2262      1
  2505   2261   2262      1
  2506   2263   2265      1
  2507   2264   2323      1
  2508   2265   2266      1
  2509   2265   2658      1
  2510   2265   2662      1
  2511   2268   2662      1
  2512   2269   2272      1
  2513   2270   2271      1
  2514   2271   2274      1
  2515   2272   2273      1
  2516   2272   2666      1
  2517   2275   2330      1
  2518   2276   2279      1
  2519   2276   2333      1
  2520   2280   2281      1
  2521   2280   2620      1
  2522   2280   2675      1
  2523   2281   2282      1
  2524   2281   2283      1
  2525   2284   2285      1
  2526   2285   2286      1
  2527   2285   2288      1
  2528   2286   2287      1
  2529   2287   2289      1
  2530   2288   2289      1
  2531   2288   2290      1
  2532   2289   2684      1
  2533   2290   2291      1
  2534   2290   2348      1
  2535   2291   2292      1
  2536   2293   2294      1
  2537   2293   2297      1
  2538   2294   2296      1
  2539   2294   2297      1
  2540   2295   2296      1
  2541   2296   2298      1
  2542   2297   2299      1
  2543   2299   2301      1
  2544   2299   2302      1
  2545   2300   2302      1
  2546   2302   2303      1
  2547   2303   2304      1
  2548   2304   2305      1
  2549   2304   2698      1
  2550   2305   2306      1
  2551   2305   2308      1
  2552   2307   2308      1
  2553   2307   2368      1
  2554   2307   2705      1
  2555   2308   2311      1
  2556   2309   2369      1
  2557   2310   2311      1
  2558   2310   2704      1
  2559   2311   2313      1
  2560   2312   2314      1
  2561   2313   2315      1
  2562   2313   2317      1
  2563   2314   2316      1
  2564   2315   2373      1
  2565   2317   2318      1
  2566   2317   2321      1
  2567   2318   2712      1
  2568   2318   2715      1
  2569   2319   2320      1
  2570   2320   2323      1
  2571   2322   2715      1
  2572   2324   2325      1
  2573   2325   2326      1
  2574   2325   2327      1
  2575   2326   2328      1
  2576   2328   2379      1
  2577   2328   2382      1
  2578   2329   2331      1
  2579   2329   2380      1
  2580   2329   2723      1
  2581   2332   2334      1
  2582   2332   2337      1
  2583   2333   2334      1
  2584   2333   2338      1
  2585   2335   2339      1
  2586   2336   2339      1
  2587   2337   2340      1
  2588   2339   2341      1
  2589   2339   2736      1
  2590   2342   2343      1
  2591   2343   2344      1
  2592   2343   2345      1
  2593   2346   2741      1
  2594   2348   2350      1
  2595   2349   2747      1
  2596   2350   2351      1
  2597   2352   2353      1
  2598   2353   2355      1
  2599   2355   2356      1
  2600   2357   2759      1
  2601   2358   2360      1
  2602   2359   2362      1
  2603   2359   2759      1
  2604   2360   2361      1
  2605   2361   2362      1
  2606   2361   2363      1
  2607   2362   2365      1
  2608   2363   2364      1
  2609   2363   2366      1
  2610   2365   2367      1
  2611   2365   2765      1
  2612   2366   2368      1
  2613   2366   2369      1
  2614   2367   2368      1
  2615   2367   2768      1
  2616   2370   2371      1
  2617   2370   2372      1
  2618   2371   2373      1
  2619   2371   2375      1
  2620   2372   2374      1
  2621   2374   2375      1
  2622   2375   2773      1
  2623   2376   2377      1
  2624   2378   2379      1
  2625   2380   2381      1
  2626   2380   2720      1
  2627   2381   2382      1
  2628   2381   2383      1
  2629   2382   2385      1
  2630   2383   2384      1
  2631   2383   2788      1
  2632   2385   2386      1
  2633   2387   2390      1
  2634   2388   2389      1
  2635   2389   2390      1
  2636   2389   2445      1
  2637   2390   2391      1
  2638   2394   2395      1
  2639   2394   2397      1
  2640   2395   2396      1
  2641   2396   2449      1
  2642   2396   2454      1
  2643   2397   2399      1
  2644   2398   2399      1
  2645   2399   2401      1
  2646   2400   2402      1
  2647   2402   2403      1
  2648   2403   2404      1
  2649   2404   2407      1
  2650   2405   2407      1
  2651   2407   2409      1
  2652   2409   2461      1
  2653   2410   2411      1
  2654   2411   2413      1
  2655   2411   2758      1
  2656   2412   2415      1
  2657   2413   2416      1
  2658   2413   2417      1
  2659   2415   2417      1
  2660   2415   2467      1
  2661   2417   2418      1
  2662   2419   2421      1
  2663   2420   2422      1
  2664   2421   2422      1
  2665   2422   2425      1
  2666   2422   2426      1
  2667   2424   2473      1
  2668   2425   2426      1
  2669   2426   2428      1
  2670   2427   2480      1
  2671   2428   2774      1
  2672   2429   2431      1
  2673   2431   2432      1
  2674   2431   2478      1
  2675   2432   2433      1
  2676   2432   2484      1
  2677   2434   2774      1
  2678   2435   2436      1
  2679   2436   2437      1
  2680   2436   2439      1
  2681   2436   2489      1
  2682   2438   2441      1
  2683   2439   2440      1
  2684   2439   2494      1
  2685   2440   2496      1
  2686   2442   2443      1
  2687   2443   2444      1
  2688   2446   2447      1
  2689   2447   2451      1
  2690   2448   2449      1
  2691   2449   2450      1
  2692   2451   2452      1
  2693   2452   2509      1
  2694   2452   2514      1
  2695   2453   2455      1
  2696   2454   2455      1
  2697   2454   2456      1
  2698   2455   2457      1
  2699   2458   2459      1
  2700   2459   2460      1
  2701   2460   2462      1
  2702   2460   2463      1
  2703   2463   2464      1
  2704   2463   2523      1
  2705   2464   2465      1
  2706   2464   2466      1
  2707   2464   2528      1
  2708   2467   2470      1
  2709   2468   2469      1
  2710   2468   2472      1
  2711   2468   2528      1
  2712   2469   2470      1
  2713   2470   2473      1
  2714   2471   2473      1
  2715   2473   2474      1
  2716   2475   2476      1
  2717   2476   2477      1
  2718   2477   2542      1
  2719   2479   2483      1
  2720   2480   2482      1
  2721   2481   2483      1
  2722   2482   2483      1
  2723   2482   2484      1
  2724   2484   2489      1
  2725   2485   2487      1
  2726   2486   2491      1
  2727   2486   2546      1
  2728   2488   2491      1
  2729   2489   2490      1
  2730   2490   2491      1
  2731   2490   2492      1
  2732   2494   2497      1
  2733   2496   2497      1
  2734   2497   2498      1
  2735   2498   2499      1
  2736   2498   2500      1
  2737   2501   2504      1
  2738   2502   2503      1
  2739   2504   2505      1
  2740   2505   2508      1
  2741   2507   2508      1
  2742   2508   2509      1
  2743   2510   2511      1
  2744   2510   2571      1
  2745   2510   2573      1
  2746   2511   2512      1
  2747   2511   2513      1
  2748   2513   2515      1
  2749   2514   2515      1
  2750   2515   2517      1
  2751   2516   2518      1
  2752   2518   2519      1
  2753   2518   2579      1
  2754   2519   2520      1
  2755   2519   2521      1
  2756   2521   2522      1
  2757   2521   2524      1
  2758   2522   2523      1
  2759   2524   2525      1
  2760   2525   2526      1
  2761   2526   2529      1
  2762   2527   2528      1
  2763   2528   2529      1
  2764   2529   2531      1
  2765   2530   2531      1
  2766   2530   2532      1
  2767   2530   2592      1
  2768   2531   2534      1
  2769   2532   2533      1
  2770   2534   2535      1
  2771   2535   2540      1
  2772   2535   2541      1
  2773   2536   2537      1
  2774   2536   2594      1
  2775   2537   2539      1
  2776   2538   2541      1
  2777   2539   2540      1
  2778   2540   2542      1
  2779   2541   2543      1
  2780   2542   2545      1
  2781   2544   2601      1
  2782   2547   2548      1
  2783   2549   2550      1
  2784   2550   2551      1
  2785   2551   2552      1
  2786   2552   2554      1
  2787   2554   2556      1
  2788   2555   2611      1
  2789   2556   2557      1
  2790   2558   2611      1
  2791   2559   2560      1
  2792   2559   2616      1
  2793   2560   2561      1
  2794   2561   2563      1
  2795   2561   2564      1
  2796   2562   2564      1
  2797   2563   2565      1
  2798   2563   2621      1
  2799   2566   2569      1
  2800   2567   2573      1
  2801   2569   2572      1
  2802   2570   2571      1
  2803   2571   2572      1
  2804   2572   2575      1
  2805   2576   2630      1
  2806   2577   2580      1
  2807   2577   2630      1
  2808   2578   2579      1
  2809   2578   2580      1
  2810   2580   2581      1
  2811   2581   2582      1
  2812   2581   2583      1
  2813   2583   2584      1
  2814   2583   2585      1
  2815   2584   2638      1
  2816   2586   2587      1
  2817   2586   2591      1
  2818   2587   2589      1
  2819   2587   2592      1
  2820   2588   2592      1
  2821   2589   2590      1
  2822   2589   2593      1
  2823   2590   2591      1
  2824   2590   2645      1
  2825   2591   2644      1
  2826   2594   2595      1
  2827   2595   2596      1
  2828   2597   2598      1
  2829   2598   2600      1
  2830   2599   2600      1
  2831   2601   2603      1
  2832   2602   2603      1
  2833   2603   2605      1
  2834   2606   2607      1
  2835   2606   2609      1
  2836   2607   2608      1
  2837   2608   2610      1
  2838   2612   2613      1
  2839   2613   2665      1
  2840   2615   2616      1
  2841   2615   2618      1
  2842   2616   2621      1
  2843   2617   2619      1
  2844   2617   2670      1
  2845   2617   2674      1
  2846   2620   2674      1
  2847   2622   2623      1
  2848   2624   2683      1
  2849   2625   2628      1
  2850   2625   2629      1
  2851   2626   2630      1
  2852   2627   2629      1
  2853   2627   2632      1
  2854   2627   2683      1
  2855   2628   2633      1
  2856   2629   2634      1
  2857   2633   2634      1
  2858   2634   2636      1
  2859   2636   2637      1
  2860   2637   2691      1
  2861   2638   2639      1
  2862   2639   2640      1
  2863   2640   2642      1
  2864   2641   2643      1
  2865   2642   2696      1
  2866   2643   2644      1
  2867   2645   2647      1
  2868   2646   2647      1
  2869   2647   2648      1
  2870   2647   2649      1
  2871   2649   2651      1
  2872   2649   2652      1
  2873   2650   2652      1
  2874   2650   2708      1
  2875   2652   2653      1
  2876   2653   2654      1
  2877   2654   2655      1
  2878   2654   2656      1
  2879   2654   2713      1
  2880   2655   2657      1
  2881   2656   2658      1
  2882   2656   2715      1
  2883   2657   2660      1
  2884   2659   2661      1
  2885   2659   2717      1
  2886   2659   2719      1
  2887   2660   2661      1
  2888   2661   2663      1
  2889   2662   2663      1
  2890   2663   2666      1
  2891   2664   2665      1
  2892   2665   2669      1
  2893   2666   2669      1
  2894   2667   2668      1
  2895   2671   2673      1
  2896   2672   2673      1
  2897   2673   2674      1
  2898   2673   2675      1
  2899   2676   2677      1
  2900   2677   2681      1
  2901   2678   2680      1
  2902   2678   2681      1
  2903   2678   2683      1
  2904   2679   2681      1
  2905   2680   2682      1
  2906   2680   2684      1
  2907   2681   2686      1
  2908   2684   2685      1
  2909   2685   2747      1
  2910   2686   2687      1
  2911   2687   2688      1
  2912   2688   2690      1
  2913   2689   2690      1
  2914   2690   2692      1
  2915   2692   2693      1
  2916   2692   2694      1
  2917   2696   2698      1
  2918   2696   2700      1
  2919   2697   2699      1
  2920   2698   2699      1
  2921   2699   2702      1
  2922   2701   2703      1
  2923   2702   2703      1
  2924   2702   2705      1
  2925   2703   2707      1
  2926   2705   2709      1
  2927   2706   2708      1
  2928   2707   2709      1
  2929   2708   2711      1
  2930   2709   2710      1
  2931   2709   2770      1
  2932   2711   2713      1
  2933   2716   2777      1
  2934   2716   2782      1
  2935   2718   2719      1
  2936   2718   2721      1
  2937   2719   2722      1
  2938   2720   2721      1
  2939   2720   2781      1
  2940   2721   2723      1
  2941   2722   2723      1
  2942   2722   2725      1
  2943   2724   2727      1
  2944   2724   2787      1
  2945   2726   2727      1
  2946   2726   2728      1
  2947   2729   2730      1
  2948   2730   2733      1
  2949   2731   2732      1
  2950   2734   2735      1
  2951   2735   2737      1
  2952   2735   2738      1
  2953   2736   2737      1
  2954   2736   2739      1
  2955   2738   2740      1
  2956   2739   2740      1
  2957   2739   2741      1
  2958   2740   2742      1
  2959   2741   2745      1
  2960   2742   2744      1
  2961   2742   2745      1
  2962   2742   2746      1
  2963   2743   2746      1
  2964   2745   2747      1
  2965   2746   2748      1
  2966   2748   2750      1
  2967   2748   2751      1
  2968   2749   2751      1
  2969   2750   2752      1
  2970   2751   2753      1
  2971   2752   2754      1
  2972   2753   2754      1
  2973   2753   2755      1
  2974   2754   2757      1
  2975   2756   2758      1
  2976   2757   2760      1
  2977   2760   2761      1
  2978   2760   2762      1
  2979   2762   2764      1
  2980   2763   2765      1
  2981   2765   2766      1
  2982   2767   2768      1
  2983   2768   2769      1
  2984   2771   2776      1
  2985   2772   2773      1
  2986   2772   2775      1
  2987   2773   2775      1
  2988   2775   2778      1
  2989   2776   2777      1
  2990   2776   2778      1
  2991   2778   2779      1
  2992   2779   2781      1
  2993   2779   2782      1
  2994   2780   2783      1
  2995   2782   2784      1
  2996   2783   2784      1
  2997   2783   2785      1
  2998   2784   2787      1
  2999   2785   2786      1
  3000   2788   2790      1
  3001   2789   2790      1
  3002   2791   2792     du
  3003   2792   2793     du
  3004   2793   2794     du
  3005   2794   2791     du
  3006   2795   2796     du
  3007   2796   2797     du
  3008   2797   2798     du
  3009   2798   2795     du
  3010   2794   2798     du
  3011   2795   2791     du
  3012   2793   2797     du
  3013   2796   2792     du
