@<TRIPOS>MOLECULE
LAMMPS data file via write_data, version 29 Oct 2020, timestep = 100 > lmp2SYBYLmol2 v3.0 / 24 May 2023 w/remove_PBC_bonds=True
  2486 2854    0    0    0
SMALL
NO_CHARGES
****
Energy = 0

@<TRIPOS>ATOM
      1 C           14.3740    -9.2411   -15.2532 C       7      r7     0.0361
      2 H          -13.8545   -11.9657   -11.9428 H       0      r0     0.0175
      3 C          -14.1775    -9.9115   -13.8994 C       0      r0    -0.0029
      4 C          -13.3422   -12.3370   -10.9688 C       6      r6    -0.0212
      5 C          -12.9291   -10.1124   -13.2579 C       0      r0    -0.0224
      6 H          -12.7231   -10.8629   -12.4398 H       0      r0     0.0158
      7 H          -12.3377   -10.2855   -10.5760 H       0      r0     0.0217
      8 C          -12.3619    -8.9606   -12.5318 C       6      r6     0.0002
      9 C          -12.0557    -9.5207   -11.1901 C       6      r6    -0.0301
     10 C          -11.6358    13.6396   -11.8199 C       0      r0    -0.0043
     11 H          -11.2000   -12.6266   -13.7875 H       0      r0     0.0171
     12 C          -10.4788   -10.1838   -11.4724 C       6      r6     0.0131
     13 C          -10.2847   -13.2702   -13.5436 C       0      r0     0.0083
     14 C          -10.0745   -10.1119   -12.6269 C       6      r6    -0.0101
     15 H          -10.6829    -9.5474   -13.4953 H       0      r0     0.0250
     16 C           -9.0505   -12.8285   -14.3631 C       0      r0    -0.0039
     17 C           -8.7767   -10.7997   -12.8962 C       6      r6     0.0314
     18 C           -8.7952   -11.3612   -14.2197 C       0      r0    -0.0151
     19 C           -8.3129   -10.1789   -15.1318 C       0      r0    -0.0146
     20 C           -7.8795   -11.5436   -11.9814 C       6      r6     0.0150
     21 H           -7.4282    -9.6934   -14.6798 H       0      r0     0.0450
     22 C           -6.5294   -11.5633   -12.0151 C       0      r0     0.0297
     23 C           -5.4179   -11.6841   -11.7327 C       0      r0     0.0058
     24 C           -4.2058   -12.1200   -11.2435 C       6      r6    -0.0006
     25 H           -3.9512    13.5519   -13.8279 H       0      r0     0.0212
     26 C           -3.4955   -10.6740   -14.3660 C       0      r0    -0.0009
     27 C           -2.8869   -11.3348   -13.2717 C       0      r0    -0.0043
     28 C           -2.8853   -11.7185   -12.0311 C       0      r0    -0.0013
     29 C           -2.6147    -9.2808   -14.0725 C       6      r6     0.0017
     30 C           -1.3965   -11.7453   -11.6768 C       0      r0    -0.0021
     31 C           -1.3992    -9.3885   -14.9829 C       6      r6    -0.0061
     32 C           -0.3957   -10.1946   -14.3988 C       6      r6     0.0049
     33 C           -0.1438   -11.7417   -11.2802 C       5      r5    -0.0036
     34 C            0.2136    -9.7405   -13.2720 C       6      r6    -0.0255
     35 C            0.5464   -13.1668   -11.3292 C       5      r5    -0.0044
     36 C            0.3201   -10.5610    15.2014 C       6      r6    -0.0219
     37 H            1.2802    13.0247   -13.6783 H       0      r0     0.0186
     38 H            1.3003   -10.8188   -14.8596 H       0      r0     0.0158
     39 H            1.2227    -9.5167   -13.6128 H       0      r0     0.0218
     40 H            1.3291   -11.2897   -12.3245 H       0      r0     0.0268
     41 C            2.2849   -11.6832   -12.2055 C       0      r0    -0.0202
     42 C            3.1022   -11.6331   -11.0155 C       0      r0     0.0149
     43 C            3.1649   -12.3526   -12.9756 C       0      r0    -0.0119
     44 C            3.8765   -12.8966   -13.9217 C       0      r0     0.0186
     45 C            4.2342   -13.0417   -15.2240 C       7      r7    -0.0852
     46 H            4.2615    -9.5768   -11.7844 H       0      r0     0.0369
     47 C            4.4247    -9.2703   -12.8721 C       0      r0    -0.0193
     48 C            4.6412   -10.1142   -15.2437 C       0      r0    -0.0034
     49 C            5.2191    -9.9222   -14.1048 C       0      r0     0.0084
     50 C            5.6568   -11.2191   -12.0613 C       0      r0    -0.0013
     51 C            6.1321   -12.3782   -11.1651 C       7      r7     0.0031
     52 C            6.1766   -10.7473   -13.3379 C       0      r0    -0.0132
     53 H            7.3325   -11.0345   -13.6704 H       0      r0     0.0275
     54 C            7.4535   -12.6821   -11.4804 C       7      r7     0.0019
     55 C            8.9054    -9.7082   -13.0780 C       6      r6    -0.0024
     56 H            9.1949   -12.5104   -10.8274 H       0      r0     0.0192
     57 C            9.2460   -10.1263   -11.8145 C       6      r6    -0.0059
     58 C            9.9042    -9.8298   -14.1653 C       7      r7    -0.0027
     59 C            9.8841   -13.1906   -13.1894 C       0      r0    -0.0046
     60 C           10.2259   -11.1501   -14.5159 C       0      r0    -0.0087
     61 C           10.5791   -13.5844   -12.0493 C       0      r0    -0.0051
     62 C           10.7520   -12.4391   -14.2734 C       0      r0     0.0055
     63 C           10.8785   -10.2318   -11.3317 C       0      r0    -0.0354
     64 H           10.8452   -11.3213   -11.7199 H       0      r0     0.0216
     65 H           11.5902    -9.4737   -11.7700 H       0      r0     0.0160
     66 C           12.0824   -12.8991   -15.0241 C       5      r5    -0.0340
     67 H           12.5832    -9.2834   -13.7768 H       0      r0     0.0149
     68 C           12.9593   -12.9266   -11.4962 C       0      r0    -0.0002
     69 C           13.1968   -13.0749   -12.9546 C       5      r5    -0.0114
     70 C           13.3212   -12.1177   -14.0769 C       5      r5     0.0290
     71 C           14.0878   -11.1698   -13.8768 C       0      r0     0.0057
     72 H          -13.8210    -6.8304   -12.9287 H       0      r0     0.0170
     73 H          -12.8603    -6.1092   -14.4527 H       0      r0     0.0212
     74 C          -12.3670    -5.0377   -14.7638 C       0      r0    -0.0265
     75 C          -11.9559    -7.6640   -13.0502 C       6      r6    -0.0091
     76 C          -11.7188    -6.7132   -11.8474 C       6      r6     0.0062
     77 C          -11.1102    -5.6490   -12.6145 C       5      r5     0.0012
     78 C          -11.2351    -7.5611   -14.2898 C       0      r0     0.0085
     79 C           -9.9315    -4.8694   -12.0336 C       5      r5     0.0080
     80 C           -8.7467    -4.6933   -12.6872 C       0      r0     0.0098
     81 O           -7.1828    -8.3974   -11.4881 O       0      r0    -0.4682
     82 C           -6.4987    -7.3817   -11.1163 C       0      r0     0.3140
     83 C           -5.0611    -7.0591   -11.6657 C       6      r6    -0.0415
     84 H           -4.9897    -8.7491   -12.7471 H       0      r0     0.0551
     85 C           -4.2742    -7.8314   -12.5487 C       6      r6     0.0098
     86 H           -3.2692    -4.7854   -14.5174 H       0      r0     0.0588
     87 C           -2.8324    -7.6007   -12.1885 C       6      r6     0.0001
     88 C           -2.5073    -6.6191   -11.2960 C       6      r6     0.0003
     89 C           -2.0353    -8.7371   -12.9594 C       6      r6    -0.0069
     90 C           -2.1024    -4.9299   -14.7937 C       0      r0     0.0019
     91 C           -0.9322    -6.9427   -10.7101 C       6      r6     0.0007
     92 C           -0.5140    -8.7603   -12.4136 C       6      r6     0.0158
     93 C           -0.3288    -8.2580   -11.0947 C       6      r6    -0.0202
     94 H            1.9095    -8.0098   -14.9733 H       0      r0     0.0117
     95 C            2.4454    -5.1804   -13.9595 C       0      r0    -0.0042
     96 C            2.6661    -6.4020   -14.3276 C       0      r0     0.0332
     97 C            2.8635    -7.5945   -14.5478 C       0      r0    -0.0032
     98 C            3.0725    -7.6868   -12.0445 C       3      r3     0.2013
     99 H            2.7115    -4.9618   -12.8716 H       0      r0     0.1028
    100 C            3.4469    -8.3473   -13.3750 C       0      r0    -0.0222
    101 C            4.1163    -7.5085   -10.9864 C       3      r3     0.1571
    102 H            4.5026    -4.9751   -10.8875 H       0      r0     0.0502
    103 O            5.3907    -6.1675   -13.8385 O       5      r5    -0.4545
    104 C            6.3649    -6.9185   -13.0749 C       5      r5     0.2913
    105 C            6.3752    -7.1637   -11.6929 C       5      r5    -0.0537
    106 C            7.3527    -7.6454   -13.7431 C       5      r5    -0.0369
    107 C            7.2230    -7.4961   -15.2451 C       5      r5    -0.0054
    108 C            7.5926    -8.1519   -11.4362 C       6      r6     0.0038
    109 O            7.6966    -4.5867   -13.6996 O       3      r3    -0.4307
    110 C            7.8229    -8.5345   -12.7395 C       6      r6    -0.0069
    111 H            9.6322    -6.4631   -14.0217 H       0      r0     0.0377
    112 C            9.6236    -5.9413   -14.9359 C       0      r0     0.0048
    113 C           10.3340    -4.8505   -15.0577 C       0      r0     0.0166
    114 H           10.5933    -6.5020   -12.7965 H       0      r0     0.0248
    115 C           11.6843    -5.1279   -14.8268 C       7      r7    -0.0056
    116 C           11.6354    -6.8909   -13.2071 C       7      r7    -0.0345
    117 C           11.8972    -6.6286   -14.6362 C       7      r7     0.0027
    118 H           11.5952    -7.9006   -12.8832 H       0      r0     0.0164
    119 C           12.3618    -6.1697   -10.7421 C       0      r0    -0.0153
    120 C           12.9076    -6.3884   -12.3323 C       7      r7     0.0031
    121 C           13.1522    -8.9027   -14.8621 C       7      r7    -0.0146
    122 C           14.1134    -6.0651   -13.0947 C       7      r7    -0.0199
    123 C           14.1223    -4.9516   -14.1847 C       5      r5    -0.0004
    124 C          -13.5394    -0.0368   -13.5531 C       0      r0     0.0037
    125 C          -13.6138    -4.1306   -14.7332 C       5      r5     0.0016
    126 C          -12.7906    -1.9651   -11.3777 C       6      r6    -0.0234
    127 C          -12.2989    -0.9819   -13.4957 C       0      r0    -0.0035
    128 C          -11.9967    -2.0845   -12.4989 C       6      r6     0.0048
    129 C          -11.7008    -4.6049   -13.4464 C       5      r5    -0.0013
    130 C          -11.4749    -1.1634   -14.5244 C       0      r0     0.0007
    131 C          -11.2417    -3.3823   -12.7322 C       6      r6    -0.0033
    132 C          -10.4338    -2.2644   -14.4409 C       0      r0    -0.0054
    133 C          -10.2726    -3.5323   -11.6509 C       6      r6    -0.0045
    134 C           -9.2058    -2.7477   -14.3840 C       0      r0    -0.0038
    135 C           -7.9040    -2.7314   -14.7127 C       0      r0    -0.0072
    136 C           -7.4658    -4.3251   -12.8379 C       0      r0     0.0028
    137 C           -7.2677    -3.7537   -11.3012 C       0      r0     0.0014
    138 C           -7.0792    -2.3080   -11.4322 C       0      r0    -0.0083
    139 C           -6.8920    -3.7811   -14.1777 C       0      r0     0.0163
    140 H           -6.2683    -1.0056   -13.3205 H       0      r0     0.0222
    141 C           -5.9290    -0.4619   -12.3961 C       0      r0    -0.0179
    142 C           -5.6266    -3.3773   -13.8610 C       0      r0     0.0160
    143 C           -4.7800    -1.4456   -12.5108 C       0      r0    -0.0015
    144 C           -4.7026    -2.7002   -13.4840 C       0      r0    -0.0175
    145 C           -3.7635    -1.3861   -11.2702 C       0      r0    -0.0045
    146 H           -3.7136    -3.3477   -14.0445 H       0      r0     0.0268
    147 C           -2.5181     0.0309   -13.9620 C       5      r5    -0.0034
    148 C           -2.3440    -1.4348   -11.7335 C       0      r0     0.0050
    149 C           -2.1500    -1.2716   -13.2186 C       5      r5     0.0002
    150 C           -1.6236    -2.4153   -14.0591 C       5      r5    -0.0033
    151 C           -1.2566    -3.9989   -13.8760 C       0      r0     0.0045
    152 C            0.0820    -4.2773   -14.1900 C       0      r0     0.0207
    153 H            1.2006    -1.8569   -12.6016 H       0      r0     0.0509
    154 C            1.4415    -4.0880   -14.3971 C       0      r0     0.0198
    155 O            1.5221    -3.8586   -11.4025 O       0      r0    -0.5417
    156 C            1.3300    -0.7344   -12.1966 C       5      r5    -0.0161
    157 C            2.3906    -3.1876   -15.2311 C       0      r0    -0.0050
    158 C            2.6430    -0.3523   -11.7947 C       5      r5    -0.0211
    159 H            3.3923    -0.8989   -11.6039 H       0      r0     0.0218
    160 C            3.7658    -3.0956   -14.5945 C       0      r0     0.0137
    161 C            4.5051    -3.2165   -13.3686 C       0      r0     0.0405
    162 C            5.2355    -4.1406   -11.1705 C       0      r0     0.0107
    163 C            5.4254    -3.2971   -12.3032 C       0      r0     0.0392
    164 H            5.8740    -0.9908   -12.3166 H       0      r0     0.0162
    165 C            6.7820    -2.6511   -11.8332 C       6      r6     0.0183
    166 C            6.9690    -1.2874   -12.0038 C       6      r6    -0.0242
    167 H            7.8666    -4.4188   -11.1421 H       0      r0     0.0496
    168 C            8.2429    -0.4792   -12.4731 C       6      r6     0.0035
    169 C            8.1430    -3.1134   -11.5121 C       6      r6     0.0192
    170 C            8.3563    -3.8126   -14.7832 C       3      r3     0.1441
    171 H            8.8647    -0.3530   -15.0871 H       0      r0     0.0243
    172 C            9.4242    -2.6140   -11.9961 C       6      r6    -0.0070
    173 C            9.5916    -1.0667   -12.1784 C       6      r6    -0.0019
    174 C            9.9200    -3.5568   -14.9143 C       0      r0    -0.0517
    175 H           10.3416    -3.1261   -11.6564 H       0      r0     0.0236
    176 H           10.1745    -3.0451   -13.8670 H       0      r0     0.0371
    177 C           10.6304    -0.5813   -15.0968 C       0      r0     0.0013
    178 C           10.7492    -0.4558   -11.6082 C       0      r0    -0.0196
    179 C           12.9910    -4.2943   -14.7553 C       5      r5     0.0016
    180 C           12.7877    -0.2803   -14.1141 C       0      r0     0.0085
    181 H           13.8028    -3.5902   -11.1866 H       0      r0     0.0206
    182 C           14.1299    -0.7743   -14.0392 C       0      r0    -0.0196
    183 H           14.3784    -1.7054   -14.5492 H       0      r0     0.0245
    184 C          -13.6345     3.6111   -14.3743 C       0      r0     0.0007
    185 C          -13.4687     1.0013   -12.5478 C       0      r0     0.0003
    186 C          -12.4872     1.0857   -11.3964 C       0      r0    -0.0031
    187 H          -10.8409     3.0138   -11.5494 H       0      r0     0.0254
    188 C           -9.9532     4.2179   -12.6611 C       0      r0     0.0066
    189 C           -9.9048     3.2710   -11.8226 C       0      r0    -0.0222
    190 C           -8.4639     2.7660   -11.8577 C       0      r0    -0.0154
    191 C           -7.5635     3.0214   -12.8115 C       0      r0     0.0010
    192 C           -6.4725     2.9680   -13.3409 C       6      r6    -0.0016
    193 C           -5.9225     4.0681   -14.2971 C       6      r6    -0.0008
    194 C           -5.7002     0.9252   -11.9119 C       0      r0    -0.0120
    195 H           -6.2172     4.1022   -11.3038 H       0      r0     0.0200
    196 C           -5.2989     2.0901   -12.4413 C       6      r6    -0.0021
    197 H           -5.1345     0.7394   -10.9030 H       0      r0     0.0197
    198 C           -3.9654     2.8005   -12.4087 C       6      r6     0.0064
    199 C           -3.7709     4.1929   -12.7376 C       6      r6    -0.0314
    200 H           -3.1740     1.0358   -11.3828 H       0      r0     0.0201
    201 C           -2.7106     1.7819   -12.2325 C       6      r6    -0.0170
    202 C           -2.3219     1.4201   -13.7229 C       6      r6    -0.0008
    203 C           -2.0989     2.7060   -14.4620 C       6      r6    -0.0006
    204 C           -1.8207     2.9873   -11.6172 C       6      r6     0.0041
    205 C           -0.7869     3.6394   -12.5702 C       6      r6    -0.0007
    206 C           -0.9112     3.4808   -13.9803 C       6      r6    -0.0008
    207 H           -0.2573     0.7442   -12.1627 H       0      r0     0.0247
    208 C            0.2214     4.0504   -14.6903 C       0      r0     0.0028
    209 C            0.6589     0.4591   -11.9904 C       5      r5    -0.0166
    210 H            1.9147     0.9770   -14.5930 H       0      r0     0.0207
    211 C            0.8707     2.7089   -11.0247 C       5      r5    -0.0025
    212 C            1.2746     1.5794   -11.4912 C       5      r5     0.0013
    213 C            1.6660     3.7451   -14.7369 C       0      r0    -0.0014
    214 C            2.3706     3.3152   -10.8530 C       5      r5    -0.0013
    215 C            2.5125     4.0396   -13.6765 C       0      r0    -0.0018
    216 C            2.5772     0.9560   -11.2163 C       5      r5    -0.0029
    217 C            3.3497     2.2663   -11.0689 C       5      r5    -0.0025
    218 H            4.9770     3.5730   -13.2401 H       0      r0     0.0202
    219 C            6.0234     3.9039   -13.3817 C       7      r7    -0.0206
    220 C            7.3972     3.1944   -13.2083 C       6      r6    -0.0148
    221 H            7.3315     3.2499   -12.2308 H       0      r0     0.0213
    222 C            7.7311     1.7496   -13.8485 C       6      r6    -0.0040
    223 C            8.1023     0.6834   -13.0305 C       0      r0    -0.0116
    224 C            8.2565     2.0007   -14.9717 C       6      r6     0.0017
    225 C            8.7713     4.0009   -13.5421 C       6      r6     0.0029
    226 C            9.5661     2.4062   -15.1427 C       6      r6    -0.0013
    227 C            9.9137     3.2957   -13.8460 C       6      r6    -0.0014
    228 C           10.3374     4.1875   -11.7905 C       6      r6     0.0010
    229 H           11.0327     0.5423   -10.9739 H       0      r0     0.0218
    230 C           11.0990     3.6475   -12.9499 C       6      r6     0.0004
    231 H           11.0453     0.9834   -13.2787 H       0      r0     0.0227
    232 C           11.5184     0.1958   -13.9763 C       0      r0    -0.0192
    233 C           12.0655     2.0325   -11.2943 C       6      r6    -0.0059
    234 C           12.2284     2.5976   -12.6024 C       6      r6    -0.0032
    235 C           12.9727     0.9239   -11.4613 C       5      r5     0.0008
    236 H           13.4429     3.5889   -15.1794 H       0      r0     0.0222
    237 C           13.4858     2.4049   -13.1128 C       5      r5     0.0051
    238 C           13.9769     2.9803   -14.3833 C       0      r0    -0.0163
    239 C           13.9845     1.0920   -12.4458 C       5      r5    -0.0010
    240 C          -14.2565     8.3607   -12.7002 C       0      r0    -0.0055
    241 C          -13.6609     6.5349   -11.3584 C       6      r6     0.0091
    242 C          -13.7149     8.0105   -11.4235 C       0      r0    -0.0406
    243 C          -13.2030     5.1303   -14.7427 C       0      r0    -0.0021
    244 C          -10.7345     7.3056   -14.7570 C       6      r6     0.0056
    245 H          -10.2939     4.9910   -14.7549 H       0      r0     0.0208
    246 C          -10.0984     5.1840   -13.6318 C       0      r0    -0.0205
    247 C          -10.0871     6.6224   -13.6500 C       6      r6    -0.0062
    248 C           -9.8549     7.1510   -11.2941 C       5      r5     0.0136
    249 C           -9.6743     7.6931   -12.7143 C       6      r6     0.0189
    250 C           -8.5587     8.6352   -13.0595 C       6      r6     0.0093
    251 C           -8.6308     6.3994   -11.0357 C       5      r5    -0.0035
    252 C           -8.3478     8.4636   -14.4870 C       6      r6     0.0035
    253 C           -7.2829     6.9743   -11.3244 C       0      r0    -0.0029
    254 C           -6.9323     8.0104   -14.7588 C       0      r0    -0.0051
    255 C           -5.9081     7.4314   -11.2414 C       0      r0    -0.0151
    256 C           -5.7675     7.9461   -13.7422 C       0      r0    -0.0043
    257 C           -5.7821     7.6254   -12.4802 C       0      r0    -0.0027
    258 C           -4.7724     4.8006   -13.8769 C       6      r6    -0.0018
    259 C           -4.6925     5.8011   -14.8921 C       5      r5    -0.0026
    260 C           -4.3312     8.5085   -13.9284 C       7      r7     0.0001
    261 H           -4.1670     4.7070   -11.7625 H       0      r0     0.0216
    262 C           -3.2692     7.7102   -13.5453 C       7      r7    -0.0046
    263 H           -2.8854     4.5208   -13.3382 H       0      r0     0.0283
    264 C           -2.1872     5.8257   -10.8690 C       7      r7    -0.0131
    265 C           -2.0284     7.3453   -13.1020 C       7      r7    -0.0039
    266 C           -1.6108     6.1269   -12.1612 C       7      r7    -0.0010
    267 C           -1.0131     8.3767   -13.0831 C       7      r7     0.0045
    268 C           -0.5458     5.1666   -12.7033 C       7      r7     0.0016
    269 C            0.3651     8.1493   -13.2061 C       7      r7    -0.0179
    270 C            0.6912     5.8268   -12.3740 C       7      r7     0.0012
    271 H            0.7030     9.1956   -13.5887 H       0      r0     0.0184
    272 C            1.1021     7.3333   -12.7255 C       7      r7     0.0024
    273 C            1.7093     5.6735   -11.3454 C       0      r0     0.0021
    274 C            2.6313     4.5133   -11.5383 C       0      r0    -0.0020
    275 C            2.4857     7.5747   -12.8433 C       0      r0    -0.0029
    276 C            3.2922     4.7340   -12.8857 C       0      r0    -0.0030
    277 C            3.7576     8.0676   -12.9736 C       0      r0    -0.0197
    278 H            3.7748     9.1888   -12.9779 H       0      r0     0.0174
    279 C            4.6403     5.7317   -13.0645 C       5      r5    -0.0071
    280 C            4.8075     6.9661   -13.1491 C       5      r5    -0.0001
    281 C            6.0573     5.2573   -13.2783 C       5      r5    -0.0007
    282 C            6.2275     7.6393   -12.9395 C       5      r5    -0.0050
    283 C            6.9311     6.4825   -13.3902 C       5      r5    -0.0037
    284 C            7.0155     8.7671   -12.7549 C       7      r7    -0.0023
    285 C            8.2865     6.4509   -13.8157 C       7      r7    -0.0007
    286 C            8.8358     5.2480   -14.3096 C       7      r7    -0.0007
    287 C            9.0222     6.4767   -11.7645 C       0      r0    -0.0001
    288 C            9.1889     7.3824   -12.9990 C       0      r0    -0.0018
    289 C            9.7593     5.3802   -11.9423 C       0      r0    -0.0008
    290 C            9.7910     8.6063   -13.2442 C       0      r0     0.0036
    291 C           10.5465     9.0814   -14.3702 C       0      r0    -0.0192
    292 C           11.9605     4.9198   -13.5284 C       0      r0    -0.0018
    293 C           11.9184     8.6469   -14.7851 C       0      r0    -0.0009
    294 C           12.3531     6.0824   -13.8724 C       0      r0     0.0002
    295 C           12.7148     7.3135   -14.3677 C       0      r0    -0.0030
    296 C           13.6901     7.7333   -13.4426 C       0      r0    -0.0021
    297 H          -14.1771    10.9869   -12.8512 H       0      r0     0.0737
    298 H          -13.8353     9.1484   -13.1334 H       0      r0     0.0456
    299 C          -12.7531    13.6520   -11.1953 C       6      r6     0.0217
    300 O          -12.5806    10.5234   -11.3689 O       6      r6    -0.4939
    301 C          -10.3909    13.5661   -12.3306 C       0      r0    -0.0522
    302 C           -9.8824    12.4387   -11.3392 C       0      r0     0.3439
    303 H           -9.3596    11.6742   -14.3767 H       0      r0     0.0553
    304 O           -9.0175    11.5745   -11.5000 O       0      r0    -0.4526
    305 C           -8.6557    12.2259   -15.0518 C       0      r0    -0.0066
    306 C           -8.1402   -13.6780   -15.0824 C       0      r0    -0.0116
    307 H           -7.8430     9.1222   -12.2486 H       0      r0     0.0647
    308 H           -4.8472    10.3608   -14.5064 H       0      r0     0.0240
    309 H           -3.5950    10.5987   -13.3658 H       0      r0     0.0225
    310 C           -3.8042     9.9639   -14.2272 C       7      r7    -0.0322
    311 H           -4.2855    10.4803   -11.2231 H       0      r0     0.0250
    312 C           -3.8414    12.8764   -11.0807 C       0      r0    -0.0024
    313 C           -2.8592    13.2092   -13.5371 C       7      r7    -0.0175
    314 C           -2.6724    12.8617   -12.2136 C       7      r7     0.0021
    315 C           -2.4147     9.9201   -14.7948 C       7      r7    -0.0086
    316 C           -2.2465    12.9509   -14.7659 C       7      r7    -0.0025
    317 C           -1.1275     9.7893   -13.8316 C       7      r7    -0.0248
    318 C           -1.4329    12.7157   -11.4866 C       7      r7    -0.0225
    319 H           -1.3361    10.7132   -10.6727 H       0      r0     0.0246
    320 C           -0.7011    12.8980   -14.5317 C       7      r7     0.0014
    321 H           -0.5934    10.6860   -13.8428 H       0      r0     0.0198
    322 C           -0.2034    13.2332   -12.0900 C       7      r7     0.0050
    323 C            0.2543    13.1999   -13.6106 C       7      r7    -0.0237
    324 H            2.1326    11.2935   -14.2091 H       0      r0     0.0256
    325 H            3.4105    12.4951   -13.6825 H       0      r0     0.0194
    326 C            3.0797    11.4409   -13.9138 C       0      r0    -0.0604
    327 H            3.3293    10.8459   -12.8960 H       0      r0     0.0170
    328 H            4.8510    11.4348   -12.8183 H       0      r0     0.0252
    329 C            5.3864    11.6488   -11.7929 C       7      r7    -0.0341
    330 H            4.8244    12.3508   -11.1754 H       0      r0     0.0233
    331 C            5.6475     9.9128   -14.4149 C       0      r0     0.0068
    332 C            5.7643    10.2823   -11.3003 C       7      r7    -0.0031
    333 C            6.8089    10.0088   -13.6107 C       7      r7     0.0050
    334 C            6.9156    12.0848   -12.0610 C       5      r5     0.0062
    335 C            7.0562     9.6756   -11.5908 C       7      r7    -0.0039
    336 C            7.5311    11.4156   -13.3058 C       5      r5     0.0224
    337 C            7.6852    13.3425   -12.1203 C       5      r5    -0.0017
    338 C            8.5370    12.0731   -13.9226 C       5      r5    -0.0035
    339 C            8.6075    13.3452   -13.2927 C       5      r5     0.0215
    340 H            9.0402    11.9477   -14.7772 H       0      r0     0.0405
    341 C            9.6514    10.0183   -11.1169 C       0      r0    -0.0062
    342 H           10.3654     9.7082   -15.2139 H       0      r0     0.0245
    343 C           10.6178     9.4714   -12.0861 C       0      r0    -0.0013
    344 C           11.6000    13.6204   -11.3614 C       0      r0    -0.0179
    345 C           11.9564     9.9715   -12.1025 C       0      r0    -0.0047
    346 C           12.6301    13.0971   -14.7870 C       5      r5     0.0125
    347 C           12.7770    10.7525   -12.2762 C       0      r0    -0.0008
    348 C           13.3084    12.9759   -13.4003 C       5      r5     0.0053
    349 C           13.7785    11.7242   -12.7086 C       0      r0    -0.0115
    350 C          -13.6865   -10.4709    -9.1342 C       5      r5     0.0249
    351 C          -13.7106    -9.3651    -7.1737 C       5      r5     0.0205
    352 O          -13.2700   -12.2230    -6.9694 O       5      r5    -0.4844
    353 C          -13.1958   -11.7496    -9.5636 C       6      r6    -0.0576
    354 C          -13.0614    -9.4171    -8.4070 C       5      r5    -0.0050
    355 C          -12.9402   -12.5376    -8.4241 C       6      r6     0.2251
    356 H          -11.2070    -9.8868    -6.9346 H       0      r0     0.0385
    357 H          -10.3630   -11.2344    -9.7788 H       0      r0     0.0259
    358 C           -9.7220   -11.0391   -10.4674 C       6      r6    -0.0095
    359 C           -8.7060   -12.0103   -10.7900 C       6      r6     0.0174
    360 H           -7.2279   -13.5022    -7.1178 H       0      r0     0.0283
    361 C           -6.5466   -12.6537    -7.3065 C       6      r6    -0.0232
    362 C           -6.0512   -10.2195    -6.7444 C       6      r6    -0.0086
    363 C           -5.5213   -12.5956    -8.4158 C       6      r6     0.0100
    364 C           -5.1815   -10.0629    -7.8782 C       6      r6     0.0061
    365 C           -4.8370   -11.3784    -8.6777 C       6      r6    -0.0022
    366 C           -4.2239   -13.4915   -10.3218 C       6      r6    -0.0004
    367 C           -3.8840   -11.1790    -9.8184 C       6      r6     0.0037
    368 C           -2.7785   -10.9133    -9.4965 C       0      r0    -0.0059
    369 C           -1.3992   -10.6430    -9.1944 C       0      r0    -0.0017
    370 C           -1.2053   -10.1147    -7.9246 C       0      r0    -0.0037
    371 C           -1.2705    -9.6830    -6.8197 C       0      r0     0.0003
    372 C           -0.1947   -11.3318    -9.8332 C       5      r5     0.0032
    373 C            1.0472   -11.8943    -9.2935 C       5      r5     0.0039
    374 C            1.2880   -13.1004   -10.1380 C       5      r5     0.0017
    375 H            1.4814   -11.4384    -7.6543 H       0      r0     0.0191
    376 C            2.2535   -11.6068    -8.5007 C       0      r0    -0.0145
    377 C            3.4078   -10.8810    -8.9371 C       0      r0     0.0052
    378 H            4.0712   -10.4672    -8.1039 H       0      r0     0.0192
    379 C            3.9975   -11.8546   -10.0006 C       0      r0    -0.0049
    380 C            4.5502   -12.8375    -7.6797 C       6      r6    -0.0009
    381 C            5.5659   -12.1847    -9.8958 C       7      r7    -0.0039
    382 C            5.7912   -12.1671    -7.4681 C       0      r0     0.0007
    383 C            6.5320   -12.1266    -8.5990 C       7      r7     0.0066
    384 H            8.0309   -10.5011    -7.9718 H       0      r0     0.0179
    385 C            7.5845   -11.1176    -8.5641 C       7      r7    -0.0271
    386 C            7.7142   -13.2675    -7.0983 C       0      r0    -0.0014
    387 C            7.9459   -11.0433    -9.7975 C       7      r7     0.0085
    388 C            8.3137   -12.3929   -10.1979 C       7      r7    -0.0329
    389 C            8.3911   -10.0412   -10.6121 C       6      r6    -0.0114
    390 H            8.6601   -13.3691    -9.5618 H       0      r0     0.0214
    391 H            9.7387   -11.0113    -7.7824 H       0      r0     0.0206
    392 H           10.1098    -9.7281    -9.5111 H       0      r0     0.0196
    393 C           10.3356   -10.8466    -6.8066 C       6      r6    -0.0322
    394 C           10.9719   -10.2311    -9.7861 C       0      r0    -0.0216
    395 C           11.7114   -10.4896    -7.2783 C       6      r6     0.0001
    396 C           11.8059   -10.6482    -8.8006 C       6      r6    -0.0002
    397 C           12.7753   -10.4143    -6.3731 C       6      r6     0.0119
    398 C           13.0725   -11.5078    -9.4103 C       6      r6     0.0126
    399 C           13.1572   -12.0795   -10.5231 C       0      r0    -0.0128
    400 H           13.2932    -9.2273    -8.6374 H       0      r0     0.0101
    401 C           13.8213   -10.3349    -8.6160 C       6      r6    -0.0039
    402 C           13.8610    -9.8686    -7.1450 C       6      r6     0.0222
    403 H           14.3868    -4.4512    -9.7131 H       0      r0     0.0184
    404 C          -14.3016    -5.5661    -9.5578 C       0      r0    -0.0164
    405 C          -12.9726    -6.2699    -9.5592 C       6      r6    -0.0008
    406 C          -12.3279    -7.1694   -10.5895 C       6      r6    -0.0024
    407 C          -12.0756    -8.4599   -10.1078 C       6      r6     0.0056
    408 C          -12.0282    -8.5772    -8.6691 C       6      r6    -0.0029
    409 C          -11.8899    -6.2444    -8.2911 C       6      r6     0.0035
    410 C          -11.4024    -7.5397    -7.7357 C       6      r6     0.0018
    411 C          -10.8545    -5.4380    -8.3738 C       0      r0     0.0103
    412 C          -10.4924    -7.7821    -6.6465 C       0      r0    -0.0014
    413 C           -9.7409    -4.5901    -8.4867 C       0      r0     0.0554
    414 H           -8.7443    -5.0519    -8.5058 H       0      r0     0.0348
    415 C           -7.9896    -7.5114    -6.4590 C       0      r0    -0.0039
    416 H           -6.6339    -6.2518   -10.8622 H       0      r0    -0.0235
    417 H           -6.9571    -7.9403    -8.4469 H       0      r0     0.0384
    418 C           -6.8746    -7.4096    -7.5793 C       0      r0    -0.0243
    419 C           -5.8661    -6.4805    -7.6557 C       0      r0    -0.0042
    420 C           -5.1386    -4.8207    -9.9230 C       5      r5    -0.0069
    421 C           -4.8912    -5.4421    -7.2707 C       3      r3    -0.0069
    422 H           -4.3911    -8.0675    -9.0673 H       0      r0     0.0194
    423 C           -4.6668    -5.8317   -10.7567 C       6      r6    -0.0070
    424 C           -4.5468    -8.7223    -8.0649 C       6      r6    -0.0196
    425 C           -3.7653    -8.1620    -6.9193 C       6      r6    -0.0006
    426 C           -3.1546    -5.7384   -10.5961 C       6      r6     0.0051
    427 C           -2.5611    -4.7728    -9.6987 C       5      r5    -0.0354
    428 C           -2.5123    -7.3679    -6.4732 C       6      r6    -0.0264
    429 H           -2.5665    -5.4347    -8.7543 H       0      r0     0.0165
    430 H           -2.1866    -6.4710    -6.9050 H       0      r0     0.0186
    431 C           -0.0095    -6.4661    -9.9850 C       0      r0     0.0341
    432 H            0.4501    -8.5350   -10.4856 H       0      r0     0.0708
    433 C            0.8904    -5.9354    -9.0567 C       0      r0     0.0040
    434 C            0.8862    -4.7269    -8.1685 C       0      r0     0.0026
    435 H            1.6817    -6.9120    -9.0887 H       0      r0     0.0756
    436 C            2.4369    -7.8035    -7.4242 C       5      r5    -0.0281
    437 C            2.4685    -6.6238    -6.7818 C       5      r5     0.0051
    438 O            2.6864    -7.9815   -10.6509 O       3      r3    -0.4916
    439 H            2.6630    -8.2953    -8.3871 H       0      r0     0.0669
    440 C            3.1314    -5.2959    -7.1158 C       5      r5     0.0006
    441 C            5.3515    -6.6302   -10.8048 C       0      r0    -0.0045
    442 C            6.0510    -5.2396    -9.0799 C       0      r0     0.0074
    443 C            5.8925    -6.4755    -9.4727 C       0      r0    -0.0097
    444 H            6.0367    -7.3623    -8.7631 H       0      r0     0.0210
    445 C            6.2494    -5.7560    -6.5341 C       0      r0    -0.0238
    446 C            6.6993    -4.8405    -7.7175 C       0      r0    -0.0046
    447 C            8.0041    -8.6215   -10.1716 C       6      r6    -0.0016
    448 C            8.2226    -8.0465    -8.8369 C       0      r0    -0.0248
    449 H            8.2789    -8.5875    -7.9618 H       0      r0     0.0133
    450 C            8.7681    -6.8377    -9.0306 C       0      r0    -0.0164
    451 H            8.9543    -6.6387    -9.9598 H       0      r0     0.0258
    452 H            9.1066    -5.6320    -6.9700 H       0      r0     0.0198
    453 C            9.4733    -6.0339    -7.9202 C       0      r0    -0.0230
    454 C           10.4345    -5.1305    -8.5481 C       0      r0    -0.0031
    455 H           11.5610    -6.8745    -6.8231 H       0      r0     0.0255
    456 H           11.3815    -6.9321   -10.4680 H       0      r0     0.0148
    457 C           12.0661    -4.6407   -10.3683 C       5      r5     0.0061
    458 C           13.3409    -6.4842    -9.6775 C       0      r0    -0.0179
    459 H           13.2856    -7.5618    -9.4353 H       0      r0     0.0143
    460 H          -14.4023    -3.2639    -8.1975 H       0      r0     0.0239
    461 C          -14.1166    -1.4728    -7.5912 C       5      r5    -0.0250
    462 H          -13.3003    -1.2082   -10.8660 H       0      r0     0.0228
    463 C          -12.6540    -1.4350    -7.7903 C       5      r5     0.0062
    464 C          -12.1097    -2.5320   -10.2431 C       6      r6     0.0018
    465 C          -11.9794    -2.0261    -8.7661 C       5      r5    -0.0099
    466 C          -10.5559    -1.8039    -6.8852 C       5      r5    -0.0611
    467 C          -10.7731    -3.1446   -10.3378 C       6      r6    -0.0020
    468 C          -10.5832    -2.2986    -8.2339 C       5      r5     0.0433
    469 C          -10.0058    -3.3164    -9.1382 C       5      r5    -0.0060
    470 H           -7.5296    -0.6804    -7.8790 H       0      r0     0.0264
    471 C           -7.1005    -0.3170    -9.6472 C       0      r0    -0.0102
    472 C           -6.4868    -4.2091   -10.1986 C       0      r0    -0.0023
    473 C           -6.4373    -1.2875   -10.5166 C       0      r0     0.0031
    474 H           -6.7932    -4.4561    -7.1578 H       0      r0     0.0444
    475 H           -5.7241    -2.1808    -8.6399 H       0      r0     0.0233
    476 C           -5.3681    -1.5659    -9.5298 C       0      r0    -0.0240
    477 C           -5.6210    -4.4410    -7.0684 C       3      r3    -0.0182
    478 C           -4.6324    -3.2933    -7.0706 C       6      r6     0.0019
    479 C           -4.2267    -2.2039   -10.1067 C       0      r0    -0.0006
    480 C           -3.8724    -3.7916    -9.5787 C       5      r5    -0.0008
    481 C           -3.6630    -2.9625    -8.0934 C       6      r6    -0.0069
    482 C           -2.6167    -1.9251    -7.9745 C       6      r6    -0.0235
    483 C           -2.5542    -1.0089    -6.8240 C       6      r6     0.0053
    484 H           -1.4931    -4.5327    -9.7617 H       0      r0     0.0310
    485 H           -1.9966    -1.7872    -8.7737 H       0      r0     0.0225
    486 C           -1.2060    -0.9800   -10.8936 C       0      r0    -0.0093
    487 C           -0.3356    -4.3368    -7.3856 C       0      r0    -0.0214
    488 C           -0.2739    -0.9296    -9.8405 C       5      r5     0.0174
    489 H           -0.4482    -3.5276    -8.1402 H       0      r0     0.0205
    490 C            1.0316    -1.7195    -9.7595 C       5      r5    -0.0977
    491 C            1.3916    -3.0029   -10.5845 C       0      r0     0.3635
    492 C            1.9061    -0.9378    -9.0274 C       5      r5     0.0147
    493 C            2.3664    -4.4758    -7.8594 C       5      r5     0.0044
    494 C            2.7325    -1.5908    -8.0559 C       5      r5    -0.0091
    495 C            3.0934    -3.0732    -7.9604 C       5      r5    -0.0027
    496 C            3.6904    -0.8166    -7.4512 C       6      r6     0.0086
    497 C            4.0695    -4.3501    -6.2826 C       5      r5    -0.0191
    498 C            4.1849    -3.0470    -7.2016 C       5      r5    -0.0034
    499 C            4.5320    -1.7329    -6.7050 C       6      r6     0.0076
    500 H            6.6273    -3.1563    -9.8363 H       0      r0     0.0149
    501 C            6.0343    -4.0974    -9.9699 C       0      r0    -0.0240
    502 H            6.7988    -1.0444    -8.4463 H       0      r0     0.0177
    503 C            6.8612    -3.4730    -7.3636 C       0      r0    -0.0062
    504 C            8.1923    -3.2960    -7.1808 C       0      r0    -0.0099
    505 H            8.7782    -0.3488    -7.9815 H       0      r0     0.0168
    506 C            9.4223    -2.8294    -6.9436 C       0      r0    -0.0043
    507 C           10.6272    -2.2887    -6.5209 C       0      r0    -0.0215
    508 H           10.7941    -1.2521    -6.0850 H       0      r0     0.0190
    509 H           10.6394    -2.7895    -8.5674 H       0      r0     0.0221
    510 C           11.3879    -4.3205    -9.1959 C       5      r5    -0.0041
    511 C           11.7967    -2.7716    -8.6313 C       5      r5    -0.0183
    512 C           11.8053    -1.1283   -10.6263 C       0      r0    -0.0010
    513 C           12.5453    -3.5579    -7.3699 C       5      r5     0.0049
    514 C           12.2979    -2.4250    -9.9768 C       5      r5     0.0017
    515 C           12.7785    -0.0902   -10.4550 C       0      r0    -0.0247
    516 C           12.8340    -3.4937   -10.7850 C       5      r5    -0.0237
    517 C           13.9110    -3.6842    -7.2773 C       5      r5    -0.0159
    518 H           14.3699    -0.5210    -7.6854 H       0      r0     0.0178
    519 C          -13.6093     3.6480   -10.1744 C       6      r6     0.0075
    520 C          -13.5561     2.6776    -9.4065 C       7      r7    -0.0165
    521 C          -12.4435     4.5263   -10.3890 C       6      r6    -0.0050
    522 C          -12.2590     1.9145    -9.2007 C       7      r7     0.0030
    523 H          -12.0073     2.5810    -7.1208 H       0      r0     0.0168
    524 C          -11.6848     1.5046   -10.3924 C       0      r0    -0.0067
    525 C          -11.6090     2.4353    -8.0859 C       7      r7    -0.0212
    526 C          -11.2697     4.3631    -9.5412 C       5      r5    -0.0041
    527 C          -10.9527     3.5324    -8.3623 C       7      r7     0.0005
    528 C          -10.1266     3.9581    -7.3785 C       0      r0    -0.0053
    529 H           -9.6538     1.4772    -9.1281 H       0      r0     0.0206
    530 C           -9.5717     1.0168    -6.8045 C       0      r0    -0.0039
    531 C           -9.2262     0.8065    -8.2009 C       0      r0    -0.0099
    532 H           -8.2467     2.0382   -11.0476 H       0      r0     0.0205
    533 C           -8.0272     0.0364    -8.6482 C       0      r0    -0.0151
    534 H           -8.4275     4.2335   -10.3027 H       0      r0     0.0207
    535 H           -5.7756     1.0375    -9.0036 H       0      r0     0.0235
    536 C           -5.8078     4.2342   -10.2907 C       0      r0    -0.0226
    537 C           -5.6309     3.1938    -9.5022 C       0      r0     0.0066
    538 C           -5.3246     1.9413    -8.8678 C       0      r0    -0.0282
    539 C           -3.7481     1.6027    -8.7348 C       0      r0    -0.0066
    540 H           -4.6119     3.0173    -6.8945 H       0      r0     0.0205
    541 C           -2.7459     1.1598    -8.4904 C       0      r0    -0.0098
    542 H           -2.3032     2.9201    -9.4369 H       0      r0     0.0230
    543 C           -1.8246     3.4954   -10.2522 C       7      r7    -0.0180
    544 C           -1.6623     0.2570    -6.3716 C       5      r5    -0.0214
    545 C           -1.4614     0.6596    -8.0100 C       0      r0     0.0004
    546 C           -0.3854     0.0940    -8.7389 C       5      r5    -0.0118
    547 C           -0.0046     4.1562    -7.6174 C       0      r0     0.0012
    548 C            0.2070     3.6129    -8.8236 C       0      r0    -0.0039
    549 C            0.3728     3.0940    -9.8924 C       0      r0    -0.0010
    550 C            1.1160     0.2559    -8.3969 C       5      r5     0.0293
    551 C            1.6654     0.3690    -7.1464 C       0      r0    -0.1042
    552 H            3.7013     1.0729    -8.4541 H       0      r0     0.0227
    553 C            4.2024     0.4904    -7.8605 C       6      r6    -0.0158
    554 C            4.7474     2.7028   -10.9270 C       0      r0    -0.0239
    555 H            4.6003     4.9230    -6.2211 H       0      r0     0.0202
    556 H            5.0967     3.6826   -11.0268 H       0      r0     0.0200
    557 C            5.2611     1.0132    -7.0058 C       6      r6    -0.0333
    558 C            5.5373     1.8468   -10.2393 C       0      r0    -0.0070
    559 H            5.6442     1.9163    -7.3840 H       0      r0     0.0256
    560 C            6.0441     0.8839    -9.5589 C       0      r0    -0.0066
    561 C            6.9167    -0.0360    -8.7149 C       0      r0    -0.0186
    562 C            7.3108     4.2111    -7.8969 C       6      r6     0.0004
    563 C            8.0762     3.0511    -8.5316 C       6      r6    -0.0161
    564 C            7.9955     1.8526    -7.7905 C       6      r6     0.0046
    565 H            8.7881     0.2771    -9.8034 H       0      r0     0.0162
    566 C            8.3829     0.5222    -8.6205 C       0      r0    -0.0334
    567 H            7.8186     2.7039    -9.7273 H       0      r0     0.0182
    568 H           10.1820     1.0677    -8.6320 H       0      r0     0.0201
    569 C           10.7956     3.3054    -6.7781 C       5      r5    -0.0050
    570 C           10.8097     3.1626    -8.1585 C       5      r5     0.0038
    571 C           10.6129     3.8647   -10.3408 C       6      r6     0.0002
    572 C           10.9522     1.7789    -8.9368 C       5      r5    -0.0338
    573 C           10.8359     4.2895    -9.0435 C       5      r5     0.0037
    574 C           11.2033     2.5914   -10.2668 C       6      r6     0.0033
    575 H           11.9673     1.0394    -8.8477 H       0      r0     0.0171
    576 C           13.1686     4.0419    -7.6898 C       0      r0    -0.0077
    577 C           13.0623     4.5006    -8.8795 C       5      r5     0.0003
    578 C           13.2441     3.2656    -6.6080 C       6      r6     0.0047
    579 H           13.5475     0.2152    -9.7252 H       0      r0     0.0162
    580 C           14.1222     4.5386   -10.0831 C       6      r6    -0.0013
    581 H          -13.9821     1.9207    -8.6021 H       0      r0     0.0153
    582 C          -13.7936     8.1507    -8.6051 C       0      r0     0.0105
    583 C          -13.5290     8.2657    -7.1580 C       0      r0    -0.0225
    584 C          -13.2298     6.8874    -6.9965 C       0      r0    -0.0196
    585 H          -12.8248     6.1756    -7.6866 H       0      r0     0.0211
    586 C          -12.7858     9.0210   -10.9425 C       6      r6     0.2228
    587 C          -12.6926     8.4377    -9.6028 C       6      r6    -0.0524
    588 C          -12.4424     5.9842   -10.7368 C       6      r6    -0.0032
    589 C          -10.8299     6.4474   -10.6526 C       5      r5    -0.0016
    590 C          -10.4419     8.7731    -8.1175 C       6      r6    -0.0328
    591 C          -10.2099     5.3127    -9.9258 C       5      r5    -0.0048
    592 H           -9.5574     6.9731    -9.1429 H       0      r0     0.0283
    593 C           -9.6268     7.6149    -8.3415 C       6      r6    -0.0093
    594 C           -8.6906     7.1896    -7.1953 C       6      r6     0.0032
    595 C           -8.9084     5.1255   -10.5356 C       5      r5    -0.0242
    596 C           -8.1910     8.4569    -6.5769 C       6      r6    -0.0079
    597 C           -7.9189     5.9833    -7.4008 C       0      r0    -0.0260
    598 H           -7.1390     5.8848    -8.0209 H       0      r0     0.0236
    599 H           -6.3394     6.2306    -9.6506 H       0      r0     0.0218
    600 C           -5.8000     5.2803    -6.7889 C       6      r6    -0.0059
    601 H           -4.7336     7.3278   -10.8684 H       0      r0     0.0136
    602 C           -5.5521     5.5062    -9.4453 C       0      r0    -0.0334
    603 C           -5.0939     5.4238    -7.9311 C       5      r5    -0.0019
    604 H           -4.4801     5.7645    -9.8689 H       0      r0     0.0193
    605 C           -3.6961     5.1318    -7.6821 C       5      r5     0.0018
    606 C           -2.5424     5.2229    -8.4321 C       0      r0    -0.0071
    607 C           -1.9226     4.8745    -9.7538 C       7      r7     0.0035
    608 C           -1.5555     9.0698    -6.9778 C       5      r5    -0.0018
    609 H           -2.0673     7.2709    -9.6173 H       0      r0     0.0193
    610 C           -1.4927     7.8669    -8.8489 C       0      r0    -0.0195
    611 C           -0.9683     5.3561    -7.7793 C       0      r0    -0.0038
    612 C           -0.9313     6.8502    -8.0321 C       0      r0    -0.0009
    613 H            0.1573     6.4920    -9.8061 H       0      r0     0.0238
    614 H            0.6645     8.5060   -10.2375 H       0      r0     0.0239
    615 C            1.2414     6.4254    -9.8920 C       0      r0    -0.0143
    616 C            1.4526     7.9508    -9.7806 C       0      r0    -0.0171
    617 C            1.9400     5.9051    -8.6135 C       0      r0    -0.0008
    618 C            2.4313     5.3925    -7.5880 C       0      r0    -0.0013
    619 C            2.7311     8.4403   -10.2026 C       5      r5     0.0097
    620 C            3.7705     7.5353   -10.2291 C       5      r5    -0.0145
    621 H            3.7798     6.4966    -9.9142 H       0      r0     0.0206
    622 C            4.3719     8.6632    -6.6395 C       5      r5     0.0082
    623 C            5.0638     8.2855   -10.4562 C       5      r5    -0.0142
    624 C            5.2643     7.4991    -6.5269 C       5      r5    -0.0195
    625 H            5.3926     5.1297    -8.9892 H       0      r0     0.0167
    626 H            6.1084     7.8507   -10.4481 H       0      r0     0.0223
    627 C            6.1090     7.7450    -7.6173 C       5      r5     0.0001
    628 C            6.5119     5.4042    -8.6593 C       0      r0    -0.0196
    629 C            6.9095     6.7848    -8.6802 C       0      r0    -0.0012
    630 H            7.0493     5.4984   -10.9957 H       0      r0     0.0195
    631 C            7.9003     6.1606   -10.6768 C       0      r0    -0.0119
    632 C            8.2282     6.7980    -9.4383 C       0      r0    -0.0148
    633 H            9.0320     7.4957    -9.1991 H       0      r0     0.0189
    634 H            9.3714     6.6898    -6.0501 H       0      r0     0.0169
    635 H           10.6652     6.6778    -8.7663 H       0      r0     0.0192
    636 C           11.1192     5.7462    -8.6660 C       0      r0    -0.0233
    637 H           11.5595     9.3338    -8.4477 H       0      r0     0.0166
    638 C           12.3759     5.7004    -9.0453 C       5      r5     0.0013
    639 H           12.3482     7.0643   -10.4299 H       0      r0     0.0220
    640 C           13.3177     6.7433    -9.7903 C       5      r5    -0.0139
    641 C           13.6935     8.1260    -8.8650 C       0      r0    -0.0021
    642 C           14.3493     5.8188   -10.3754 C       6      r6     0.0004
    643 C          -13.2452    12.7305    -7.2298 C       5      r5    -0.0376
    644 H          -13.4182     9.2177    -6.7143 H       0      r0     0.0167
    645 C          -12.6702    13.3442    -8.6197 C       6      r6     0.0055
    646 C          -12.6797    12.6558    -9.8335 C       6      r6    -0.0273
    647 C          -12.1920    11.2983   -10.1552 C       6      r6     0.2057
    648 C          -11.4949    10.5960    -9.1709 C       6      r6     0.1903
    649 C          -11.5372     9.2283    -8.9977 C       6      r6    -0.0030
    650 O          -10.3917    11.2273    -8.3825 O       5      r5    -0.4667
    651 H          -10.1438    12.7641   -10.2522 H       0      r0     0.0262
    652 C           -9.7708     9.9644    -7.6950 C       6      r6     0.2232
    653 C           -8.5215     9.8865    -7.3561 C       6      r6    -0.0262
    654 H           -7.5048    11.8550    -7.3612 H       0      r0     0.0420
    655 C           -7.5286    10.9794    -6.9832 C       5      r5     0.0048
    656 H           -5.5086    12.4951    -9.5234 H       0      r0     0.0379
    657 C           -5.1829    13.5017    -9.2122 C       6      r6    -0.0194
    658 C           -3.7914    11.3472   -10.7506 C       0      r0    -0.0144
    659 H           -3.4171     9.0039    -9.3043 H       0      r0     0.0196
    660 C           -2.9193     9.9422    -9.3299 C       0      r0    -0.0217
    661 C           -2.9609    11.2997    -9.7108 C       0      r0    -0.0193
    662 H           -2.7361    12.3785    -7.2484 H       0      r0     0.0161
    663 H           -2.4689    11.9239    -9.1014 H       0      r0     0.0172
    664 C           -1.6385     9.3519    -8.6665 C       5      r5    -0.0004
    665 H           -1.9088    12.9792   -10.5879 H       0      r0     0.0222
    666 H           -1.6062    11.4052    -6.5568 H       0      r0     0.0183
    667 C           -0.5361    10.2228    -8.7553 C       5      r5     0.0009
    668 C           -0.4157    10.6562   -10.1842 C       0      r0    -0.0218
    669 C           -0.1528     9.4564    -6.6078 C       5      r5    -0.0025
    670 C            0.3472    10.0527    -7.8736 C       5      r5     0.0006
    671 C            0.8700    11.1918   -10.5754 C       0      r0    -0.0001
    672 C            1.9185    13.0531    -6.8333 C       6      r6     0.0032
    673 C            1.8064    10.2271    -7.6779 C       5      r5     0.0009
    674 C            2.1181    11.9601   -10.3475 C       5      r5    -0.0067
    675 C            2.0591     9.0680    -6.6835 C       5      r5     0.0012
    676 C            2.1199    13.1264    -9.5414 C       5      r5     0.0010
    677 C            2.8234    12.7068    -8.1159 C       6      r6    -0.0013
    678 C            2.5710    11.1838    -8.4616 C       5      r5    -0.0015
    679 C            3.1803    10.9030    -9.8544 C       5      r5    -0.0033
    680 C            3.2314     9.7269   -10.6260 C       5      r5    -0.0086
    681 C            4.2822    13.0934    -8.4096 C       6      r6    -0.0013
    682 C            4.8456     9.6146   -10.6360 C       5      r5     0.0001
    683 H            4.6989    10.6696    -7.8514 H       0      r0     0.0255
    684 C            5.0707     9.7626    -7.5397 C       5      r5    -0.0202
    685 C            5.3181    12.5454    -8.6430 C       0      r0    -0.0043
    686 C            6.2120     9.2212    -7.6002 C       5      r5     0.0048
    687 H            6.6389    11.3113    -9.5453 H       0      r0     0.0232
    688 C            6.5661    12.0728    -8.6488 C       0      r0    -0.0169
    689 C            7.7225     9.8902    -8.0822 C       0      r0    -0.0016
    690 C            7.7332    12.8356    -7.7329 C       0      r0    -0.0017
    691 C            8.2272     9.9561    -9.2764 C       0      r0    -0.0093
    692 C            8.2898    10.1857   -10.6203 C       0      r0    -0.0013
    693 C            8.5798    10.4481    -7.0046 C       0      r0    -0.0042
    694 C            8.9441    11.8360    -7.4080 C       0      r0    -0.0040
    695 H           11.7750   -13.5875   -10.1641 H       0      r0     0.0195
    696 H           11.4739    11.6868    -7.8570 H       0      r0     0.0201
    697 C           12.3445    11.3978    -7.1524 C       0      r0    -0.0213
    698 C           12.7039     9.0973    -8.3894 C       0      r0    -0.0186
    699 C           13.1898    10.2689    -7.7590 C       0      r0    -0.0162
    700 H           14.3479    10.4922    -7.4402 H       0      r0     0.0164
    701 C          -14.3802    -9.9010    -3.4998 C       0      r0     0.0037
    702 C          -14.2546   -13.4725    -3.8415 C       0      r0     0.0085
    703 C          -13.6316   -13.6386    -6.3857 C       5      r5     0.2227
    704 C          -13.8412   -10.0859    -2.0631 C       0      r0    -0.0053
    705 C          -13.2229    -9.3125    -5.7553 C       0      r0     0.0224
    706 C          -12.7766   -13.4037    -3.1645 C       7      r7     0.0124
    707 C          -12.1802   -10.3412    -2.4861 C       0      r0     0.0014
    708 C          -11.8923    -9.5097    -6.0021 C       0      r0     0.0003
    709 C          -11.5934   -10.0691    -3.6701 C       0      r0     0.0058
    710 C          -11.0217    -9.7148    -4.7707 C       0      r0     0.0055
    711 C          -10.0237   -11.8451    -2.6581 C       6      r6     0.0059
    712 C           -9.4571    -9.0300    -4.7472 C       0      r0    -0.0306
    713 C           -9.6601   -13.0749    -3.2514 C       6      r6     0.0014
    714 C           -8.6937   -10.2601    -5.3727 C       0      r0     0.0079
    715 C           -8.1146   -13.6282    -3.4923 C       6      r6    -0.0034
    716 H           -8.1678   -12.3199    -5.1316 H       0      r0     0.0268
    717 C           -7.9538   -11.2838    -5.5120 C       0      r0    -0.0228
    718 C           -7.3550   -12.6062    -3.0206 C       6      r6    -0.0100
    719 C           -6.7875   -11.3596    -6.6518 C       6      r6     0.0065
    720 H           -6.8098    -9.6617    -3.7683 H       0      r0     0.0267
    721 C           -6.0618   -12.8560    -3.0068 C       0      r0    -0.0026
    722 C           -5.5529    -9.1714    -5.4295 C       6      r6    -0.0143
    723 C           -4.6280   -13.4150    -3.0366 C       0      r0    -0.0025
    724 C           -4.1553    -9.0746    -5.7712 C       6      r6     0.0030
    725 C           -3.4086   -13.3183    -3.7822 C       0      r0     0.0017
    726 C           -3.2129    -9.1837    -4.7062 C       6      r6     0.0019
    727 C           -1.8443    -9.3477    -5.1591 C       6      r6    -0.0174
    728 C           -1.1713   -13.0097    -4.8395 C       5      r5    -0.0008
    729 H           -1.5647    -9.8067    -4.0877 H       0      r0     0.0210
    730 C           -0.2221   -12.5811    -3.9735 C       0      r0    -0.0031
    731 C            0.5799   -12.1001    -2.9981 C       0      r0    -0.0028
    732 C            1.9387   -11.5982    -3.6872 C       0      r0    -0.0069
    733 C            1.8119   -10.3507    -3.8764 C       0      r0     0.0045
    734 C            2.1502    -9.0056    -6.5193 C       5      r5    -0.0147
    735 C            2.7409   -13.6031    -5.8349 C       6      r6    -0.0173
    736 H            1.9195   -10.0985    -6.7918 H       0      r0     0.0182
    737 C            3.2323   -12.0957    -3.1756 C       0      r0    -0.0048
    738 C            3.8393   -12.7990    -6.3744 C       6      r6    -0.0001
    739 C            4.2771   -12.5572    -2.8600 C       0      r0    -0.0077
    740 C            5.2230   -13.3783    -2.5239 C       7      r7    -0.0018
    741 H            6.1192   -12.0860    -4.8039 H       0      r0     0.0217
    742 C            5.8332    -8.9492    -5.6948 C       0      r0    -0.0182
    743 C            6.0023   -10.3811    -5.6601 C       0      r0    -0.0009
    744 C            6.2147   -11.7776    -5.8947 C       0      r0    -0.0159
    745 C            7.7236   -12.2619    -6.3828 C       0      r0    -0.0022
    746 C            8.4230   -12.8859    -2.9640 C       0      r0    -0.0031
    747 C            8.9397   -12.1651    -5.3763 C       5      r5    -0.0077
    748 C            8.9927   -12.1808    -3.9527 C       5      r5    -0.0053
    749 H            9.9707    -9.9570    -6.3595 H       0      r0     0.0162
    750 H           10.4795   -10.6472    -2.7660 H       0      r0     0.0102
    751 C           10.2987   -11.9957    -5.6082 C       6      r6     0.0049
    752 C           10.4371   -11.6317    -3.4296 C       5      r5    -0.0125
    753 C           10.5488   -13.3953    -6.3857 C       0      r0    -0.0014
    754 C           11.2661   -11.6176    -4.5394 C       6      r6    -0.0060
    755 C           12.4014   -11.0461    -5.1532 C       6      r6     0.0017
    756 C           13.5740   -11.1679    -4.1829 C       0      r0     0.0041
    757 C           14.0296   -12.2342    -4.1121 C       0      r0     0.0220
    758 C          -13.9437    -7.6108    -3.9730 C       5      r5     0.0040
    759 C          -13.6540    -8.8933    -4.3300 C       0      r0    -0.0044
    760 C          -13.6314    -5.5065    -3.9196 C       6      r6     0.0028
    761 C          -12.8172    -6.8160    -4.2251 C       6      r6    -0.0119
    762 H          -12.2027    -7.0854    -5.3546 H       0      r0     0.0221
    763 C          -11.8923    -6.6813    -2.8920 C       6      r6    -0.0117
    764 C          -11.8381    -7.8383    -2.3500 C       0      r0    -0.0027
    765 C          -11.5575    -5.4554    -2.3772 C       6      r6     0.0119
    766 C           -9.3547    -4.5816    -2.1377 C       6      r6     0.0192
    767 H           -9.0761    -8.6758    -3.8251 H       0      r0     0.0261
    768 C           -9.3193    -8.1199    -6.0558 C       0      r0     0.0042
    769 C           -7.9148    -4.7463    -2.7509 C       6      r6     0.0168
    770 C           -7.6191    -6.4201    -5.7377 C       0      r0     0.0242
    771 C           -7.6203    -5.2236    -5.0182 C       5      r5    -0.0363
    772 C           -7.2115    -5.6937    -3.5388 C       5      r5     0.0010
    773 C           -6.1926    -6.6876    -3.0059 C       6      r6     0.0084
    774 H           -6.2638    -8.4850    -6.2033 H       0      r0     0.0229
    775 C           -5.9912    -8.9845    -3.9552 C       7      r7    -0.0078
    776 C           -5.3412    -7.7573    -3.5017 C       6      r6     0.0096
    777 C           -4.5706    -5.1085    -5.8960 C       3      r3     0.0027
    778 C           -4.0810    -7.6982    -2.8185 C       6      r6     0.0071
    779 C           -3.5784    -4.5993    -5.0921 C       0      r0    -0.0028
    780 C           -3.6369    -6.4006    -2.0975 C       6      r6    -0.0190
    781 C           -3.2316    -8.7969    -3.2037 C       7      r7     0.0001
    782 C           -1.7463    -7.6795    -5.2771 C       6      r6     0.0098
    783 H           -1.5039    -8.9127    -2.3285 H       0      r0     0.0143
    784 C           -0.9603    -6.8473    -4.5391 C       0      r0    -0.0473
    785 H           -0.8333    -5.8460    -4.8568 H       0      r0     0.0237
    786 H           -0.5424    -7.3530    -3.6719 H       0      r0     0.0210
    787 H            1.3762    -4.6200    -2.9975 H       0      r0     0.0195
    788 H            2.4990    -8.3350    -3.0962 H       0      r0     0.0218
    789 C            1.9074    -6.8060    -5.3580 C       5      r5    -0.0031
    790 C            1.8134    -8.3903    -5.3217 C       5      r5     0.0087
    791 C            1.9159    -5.5469    -3.2463 C       0      r0    -0.0200
    792 C            1.8922    -8.8689    -3.8942 C       0      r0    -0.0216
    793 C            1.8337    -6.1277    -4.3820 C       0      r0    -0.0049
    794 C            3.2559    -5.4232    -2.4809 C       0      r0    -0.0208
    795 C            4.2278    -5.8756    -3.5080 C       0      r0    -0.0019
    796 C            5.0607    -5.3400    -5.8782 C       0      r0     0.0016
    797 C            5.3214    -8.5889    -3.0107 C       0      r0    -0.0081
    798 C            5.0772    -5.8471    -4.4785 C       0      r0    -0.0043
    799 C            5.5422    -8.5370    -4.1517 C       0      r0     0.0003
    800 H            6.4728    -8.4707    -6.4823 H       0      r0     0.0142
    801 C            6.4140    -5.4440    -2.3872 C       6      r6    -0.0187
    802 C            6.4638    -5.4621    -3.7769 C       6      r6     0.0015
    803 H            6.9006    -6.6299    -6.1140 H       0      r0     0.0142
    804 H            7.3529    -8.2467    -3.4249 H       0      r0     0.0291
    805 C            8.0436    -5.0722    -4.4578 C       6      r6    -0.0150
    806 C            8.0457    -8.3250    -2.7023 C       0      r0    -0.0573
    807 H            7.8896    -5.3073    -5.4719 H       0      r0     0.0185
    808 C            8.7832    -6.9185    -2.4678 C       6      r6     0.0020
    809 H            8.6410    -9.2410    -3.0653 H       0      r0     0.0173
    810 C            9.0784    -5.9111    -3.6205 C       6      r6     0.0043
    811 C           10.3232    -5.3454    -4.1927 C       6      r6    -0.0196
    812 H           10.7851    -6.2862    -4.2180 H       0      r0     0.0204
    813 H           11.5889    -9.2226    -2.1635 H       0      r0     0.0186
    814 C           11.8626    -7.3714    -5.9816 C       0      r0    -0.0449
    815 H           11.4044    -8.3167    -5.4791 H       0      r0     0.0195
    816 C           12.7218    -6.6039    -5.4129 C       0      r0     0.0083
    817 H           12.5832    -7.5405    -3.4429 H       0      r0     0.0182
    818 C           13.1901    -5.2936    -5.8437 C       5      r5    -0.0049
    819 C           13.1906    -4.9009    -2.5232 C       7      r7    -0.0055
    820 C           13.3716    -7.1735    -4.0673 C       5      r5    -0.0170
    821 C           13.9796    -5.8375    -3.4036 C       5      r5    -0.0021
    822 C          -14.4079    -4.6997    -6.1966 C       5      r5     0.0071
    823 C          -14.1030    -1.3462    -6.1119 C       5      r5     0.0018
    824 C          -13.6400    -3.0508    -3.9148 C       6      r6    -0.0021
    825 C          -12.9883    -4.2914    -3.4749 C       6      r6    -0.0044
    826 C          -12.9307    -1.0414    -5.3002 C       5      r5    -0.0076
    827 C          -12.7730    -2.0411    -4.4703 C       6      r6     0.0025
    828 C          -12.1852    -4.0743    -2.2427 C       6      r6    -0.0074
    829 C          -11.8122    -0.8258    -6.3564 C       5      r5    -0.0064
    830 C          -11.5461    -2.3311    -3.8604 C       6      r6     0.0055
    831 C          -11.3343    -3.0649    -2.8628 C       6      r6     0.0054
    832 H          -11.8968     0.3670    -6.3672 H       0      r0     0.0143
    833 C          -10.5600    -1.8138    -4.7847 C       7      r7    -0.0526
    834 C          -10.0391    -2.5984    -5.9720 C       7      r7     0.2787
    835 C           -9.9384    -3.2511    -2.2636 C       6      r6     0.0298
    836 O           -9.3530    -3.8465    -6.2389 O       7      r7    -0.5271
    837 C           -9.2664    -1.4232    -4.3667 C       7      r7    -0.0237
    838 C           -8.5233    -4.1996    -4.9178 C       5      r5     0.2225
    839 C           -8.4810    -2.1672    -3.4409 C       6      r6     0.0868
    840 C           -8.3346    -3.5987    -3.6990 C       6      r6    -0.0588
    841 C           -8.3301    -0.5751    -5.3561 C       0      r0    -0.0237
    842 H           -7.7253    -0.5502    -4.4899 H       0      r0     0.0440
    843 H           -6.7123    -2.8557    -5.2157 H       0      r0     0.0512
    844 O           -6.2624    -1.7657    -2.7426 O       5      r5    -0.5272
    845 C           -5.7430    -2.3889    -5.2520 C       0      r0    -0.0663
    846 C           -5.4843    -1.6399    -4.0494 C       5      r5     0.2412
    847 C           -4.6861    -2.0623    -6.3770 C       6      r6     0.0081
    848 C           -4.0631    -0.5194    -2.4793 C       6      r6     0.2078
    849 C           -4.3081    -0.8560    -3.6436 C       5      r5    -0.1153
    850 C           -3.7425    -0.9634    -6.1721 C       6      r6    -0.0089
    851 H           -3.1692    -0.4664    -4.1369 H       0      r0     0.0595
    852 C           -2.5138    -3.9838    -4.5157 C       5      r5    -0.0061
    853 C           -2.3813    -3.5198    -2.9386 C       6      r6     0.0043
    854 C           -1.3726    -3.3600    -5.1641 C       5      r5    -0.0066
    855 C           -1.0825    -2.7687    -2.9751 C       6      r6     0.0147
    856 C           -0.8084    -4.0021    -6.2310 C       0      r0    -0.0057
    857 C           -0.6330    -2.5190    -4.2216 C       5      r5    -0.0046
    858 H           -0.1182     0.1777    -1.6852 H       0      r0     0.0515
    859 H            0.3492    -0.5259    -4.4438 H       0      r0     0.0298
    860 C            0.5800    -1.6148    -4.2055 C       0      r0    -0.0141
    861 C            1.8046    -2.2086    -4.2857 C       0      r0     0.0204
    862 C            3.0298    -2.7553    -3.9802 C       0      r0    -0.0232
    863 H            3.6570    -4.2107    -5.2313 H       0      r0     0.0198
    864 H            3.7413    -2.4715    -4.7098 H       0      r0     0.0318
    865 C            3.7307    -2.1943    -2.7691 C       0      r0    -0.0039
    866 C            4.4956    -1.1333    -3.0270 C       0      r0     0.0131
    867 C            5.2224    -0.2271    -3.0635 C       0      r0     0.0176
    868 C            5.9218    -1.5064    -6.6989 C       6      r6    -0.0014
    869 H            5.9796    -3.5044    -5.4480 H       0      r0     0.0235
    870 C            6.3663    -0.0063    -6.5874 C       6      r6     0.0063
    871 C            6.3783    -2.6816    -5.8667 C       0      r0    -0.0214
    872 H            7.3781    -3.1282    -3.2767 H       0      r0     0.0207
    873 C            8.1594    -3.7589    -3.6009 C       6      r6    -0.0144
    874 C            8.4309     0.0120    -5.0251 C       0      r0     0.0079
    875 C            9.4740    -3.0600    -3.7962 C       6      r6     0.0015
    876 C            9.6969    -2.1674    -2.7038 C       0      r0    -0.0271
    877 C           10.3918    -3.9763    -4.6140 C       6      r6     0.0011
    878 H           10.2421    -1.4275    -2.9312 H       0      r0     0.0316
    879 C           11.2282    -3.3910    -5.7160 C       0      r0     0.0015
    880 H           12.0983    -3.0812    -2.4814 H       0      r0     0.0179
    881 C           12.0536    -4.2877    -6.1332 C       5      r5    -0.0029
    882 H           13.1388    -0.7958    -3.1433 H       0      r0     0.0339
    883 C           13.3492    -3.3384    -2.2894 C       7      r7    -0.0340
    884 C           13.6664    -1.1851    -4.0584 C       7      r7    -0.0219
    885 C           13.7679    -0.5806    -5.3332 C       7      r7    -0.0052
    886 C           13.9657    -2.5469    -3.5720 C       7      r7     0.0008
    887 C          -13.7848     3.5863    -2.3524 C       6      r6    -0.0516
    888 H          -13.8786     1.9279    -6.6811 H       0      r0     0.0164
    889 C          -13.1608     1.2709    -2.5313 C       5      r5    -0.0578
    890 H          -12.7394     0.1428    -2.3866 H       0      r0     0.0313
    891 C          -12.6997     3.5086    -3.0568 C       5      r5     0.0068
    892 C          -12.1489     2.2537    -2.7613 C       5      r5    -0.0053
    893 C          -10.8133     2.1802    -3.2313 C       0      r0     0.0022
    894 C          -10.2741     2.1972    -4.6191 C       0      r0    -0.0118
    895 C           -9.9036     2.0497    -2.2501 C       0      r0    -0.0094
    896 C           -9.8252     2.3466    -5.7045 C       0      r0    -0.0003
    897 C           -9.2541     3.6719    -6.4402 C       0      r0    -0.0218
    898 C           -8.9241     0.0999    -6.0904 C       0      r0     0.0069
    899 C           -8.4755     1.9764    -2.9401 C       0      r0    -0.0037
    900 H           -8.3139     4.2039    -6.2452 H       0      r0     0.0215
    901 C           -7.4756     1.8952    -3.2753 C       0      r0     0.0010
    902 C           -6.0443     1.6430    -4.0117 C       0      r0     0.0097
    903 C           -5.9909     3.0945    -4.2185 C       0      r0    -0.0056
    904 C           -5.8962     4.4924    -4.5073 C       6      r6    -0.0014
    905 H           -5.8443     2.1689    -5.9671 H       0      r0     0.0161
    906 C           -5.2194     4.5447    -5.7984 C       6      r6     0.0016
    907 C           -5.1605     1.4042    -5.2467 C       0      r0    -0.0133
    908 C           -4.0688     3.9233    -6.5629 C       5      r5    -0.0155
    909 C           -3.9725     0.5744    -5.7887 C       5      r5    -0.0006
    910 H           -3.7262     4.2998    -3.1675 H       0      r0     0.0268
    911 C           -2.8289     3.6065    -5.3459 C       5      r5    -0.0034
    912 C           -2.7252     1.1569    -5.6610 C       5      r5     0.0012
    913 C           -2.3709     2.4926    -4.8040 C       5      r5     0.0079
    914 C           -1.0471     2.8470    -4.2121 C       5      r5     0.0059
    915 H           -0.6989    -0.0651    -5.9879 H       0      r0     0.0210
    916 C           -0.8636     4.3831    -4.4054 C       5      r5    -0.0155
    917 H           -0.6500     0.8559    -3.4037 H       0      r0     0.0449
    918 C           -0.2474     1.9219    -3.3336 C       0      r0    -0.0141
    919 H            1.0020     3.0864    -5.7729 H       0      r0     0.0296
    920 C            1.0352     4.1113    -6.4183 C       0      r0    -0.0134
    921 C            1.0231     2.2484    -2.7441 C       0      r0     0.0256
    922 C            1.4744     3.8807    -2.4840 C       0      r0    -0.0129
    923 C            2.3317     0.7248    -5.9945 C       0      r0     0.3119
    924 C            2.5327     4.5470    -6.7181 C       0      r0    -0.0190
    925 C            2.8042     4.4778    -2.9948 C       0      r0     0.0116
    926 O            3.0623     0.8438    -4.9113 O       0      r0    -0.4894
    927 H            2.7312     4.4827    -5.6399 H       0      r0     0.0279
    928 C            4.0885     4.2026    -2.3267 C       6      r6     0.0078
    929 H            4.8378     1.2721    -5.9152 H       0      r0     0.0832
    930 C            5.4086     4.4165    -5.9825 C       5      r5    -0.0234
    931 C            5.5845     3.8928    -4.5974 C       5      r5     0.0143
    932 C            5.8790     0.8800    -3.3285 C       0      r0     0.0148
    933 C            6.4566     1.5017    -4.5561 C       0      r0     0.0066
    934 C            6.7030     2.9111    -4.7394 C       5      r5     0.0020
    935 H            7.0426     0.3520    -3.2673 H       0      r0     0.0234
    936 C            6.7985     4.2901    -6.6038 C       6      r6    -0.0013
    937 C            7.0085     0.4110    -5.3406 C       0      r0    -0.0063
    938 C            7.5806     3.3583    -5.7296 C       6      r6    -0.0045
    939 C            8.3502     2.3093    -6.3950 C       6      r6    -0.0045
    940 C            9.1509     0.6497    -3.9836 C       0      r0    -0.0612
    941 C            9.8027     2.6583    -5.8037 C       5      r5     0.0090
    942 C            9.9320     1.5343    -3.4684 C       0      r0     0.2263
    943 C           10.3773     2.2669    -4.6776 C       5      r5    -0.0456
    944 C           11.8134     2.4200    -4.6791 C       6      r6     0.0338
    945 C           12.0038     3.2627    -5.8140 C       6      r6    -0.0063
    946 C           12.3486     1.0674    -4.6133 C       6      r6    -0.0341
    947 H           12.3795     0.7856    -3.6527 H       0      r0     0.0557
    948 C           13.3709     0.8287    -5.6420 C       6      r6     0.0035
    949 H          -14.3390     2.4827    -4.9874 H       0      r0     0.0240
    950 C           14.2188     2.1074    -5.9624 C       6      r6    -0.0392
    951 C          -14.3620     6.5911    -4.6962 C       0      r0    -0.0173
    952 C          -13.2315     6.3865    -5.6235 C       0      r0    -0.0000
    953 C          -11.9051     4.4717    -3.8202 C       7      r7    -0.0014
    954 H          -11.3612     4.9705    -5.9233 H       0      r0     0.0184
    955 C          -12.0543     5.4565    -5.1013 C       7      r7    -0.0179
    956 H          -11.2673     8.0557    -3.2813 H       0      r0     0.0238
    957 C          -11.2001     8.9828    -2.6473 C       0      r0    -0.0132
    958 C          -11.0980     5.3479    -3.0341 C       7      r7     0.0049
    959 C          -10.7301     6.3403    -4.8784 C       7      r7    -0.0071
    960 C           -9.8183     6.9537    -4.7327 C       7      r7    -0.0109
    961 C           -9.3410     6.9847    -3.0731 C       7      r7     0.0023
    962 H           -8.8385     5.0343    -4.9384 H       0      r0     0.0210
    963 C           -8.5060     7.9124    -2.9296 C       7      r7    -0.0160
    964 H           -8.1804     8.3978    -4.0219 H       0      r0     0.0210
    965 C           -7.8544     5.6572    -5.0395 C       6      r6    -0.0161
    966 C           -7.1441     5.5514    -6.2998 C       6      r6     0.0001
    967 C           -7.1120     8.7242    -5.9616 C       5      r5     0.0015
    968 C           -6.6452     5.6789    -4.0949 C       6      r6    -0.0002
    969 C           -6.1309     7.9130    -5.2832 C       6      r6    -0.0026
    970 C           -6.0713     6.7590    -4.3744 C       6      r6     0.0007
    971 C           -5.0555     8.8149    -5.6504 C       6      r6    -0.0011
    972 C           -4.9364     6.8006    -3.6686 C       6      r6    -0.0051
    973 C           -4.6836     6.0626    -2.3455 C       5      r5     0.0040
    974 C           -3.8589     6.9458    -4.5582 C       6      r6     0.0058
    975 C           -3.7889     8.2855    -5.5993 C       6      r6    -0.0041
    976 C           -2.8299     6.1202    -4.9509 C       0      r0    -0.0170
    977 H           -3.3749     9.1416    -2.8435 H       0      r0     0.0231
    978 C           -2.6708     8.5194    -6.3654 C       0      r0    -0.0067
    979 H           -2.1183     6.5100    -5.7072 H       0      r0     0.0250
    980 C           -2.3332     4.7007    -4.6887 C       5      r5    -0.0015
    981 C           -0.5523     7.2124    -2.1143 C       3      r3    -0.0086
    982 C           -0.3310     8.8422    -2.2414 C       3      r3    -0.0133
    983 H           -0.4683     4.9916    -3.3901 H       0      r0     0.0168
    984 H            0.0987     8.8145    -3.2920 H       0      r0     0.0215
    985 C            0.4017     4.8970    -5.3985 C       0      r0    -0.0002
    986 C            0.7151     6.2136    -5.4836 C       0      r0    -0.0053
    987 C            0.8772     8.5818    -6.0323 C       5      r5    -0.0015
    988 C            1.1657     7.4029    -5.1086 C       5      r5    -0.0020
    989 H            3.2999     6.2539    -5.9601 H       0      r0     0.0153
    990 C            2.6865     7.2264    -5.3601 C       5      r5    -0.0062
    991 C            3.2005     8.4118    -6.1063 C       5      r5    -0.0031
    992 C            2.9808     5.6241    -3.6700 C       0      r0    -0.0048
    993 C            3.7162     6.6959    -4.2673 C       0      r0    -0.0183
    994 H            4.8797     7.0627    -4.2483 H       0      r0     0.0170
    995 H            4.9179     6.7855    -2.1599 H       0      r0     0.0199
    996 C            5.0932     4.5267    -3.3012 C       6      r6    -0.0029
    997 H            4.9205     6.4682    -5.8897 H       0      r0     0.0140
    998 C            6.3514     4.8659    -2.7068 C       6      r6     0.0080
    999 C            7.1562     9.1994    -3.5929 C       0      r0     0.0006
   1000 H            7.7352     7.2967    -2.7266 H       0      r0     0.0183
   1001 C            7.7137     5.2183    -3.0888 C       0      r0    -0.0309
   1002 C            7.8877     8.3775    -2.7937 C       0      r0    -0.0227
   1003 H            8.2502     5.1772    -3.8849 H       0      r0     0.0262
   1004 C            9.3216     7.9143    -5.9096 C       0      r0    -0.0165
   1005 C           10.2114     7.7904    -4.8368 C       0      r0    -0.0145
   1006 C           10.7448     8.9101    -4.1230 C       0      r0     0.0451
   1007 C           11.0540     6.6013    -2.1281 C       0      r0    -0.0077
   1008 C           11.0695     6.5199    -4.4106 C       0      r0    -0.0074
   1009 H           11.3128     6.3977    -5.5696 H       0      r0     0.0188
   1010 C           11.4506     5.7780    -3.3135 C       0      r0    -0.0065
   1011 H           10.8488     7.6157    -1.8195 H       0      r0     0.0348
   1012 H           11.7993     4.6455    -2.8748 H       0      r0     0.0444
   1013 H           13.6479     7.3681    -5.1104 H       0      r0     0.0214
   1014 C           14.2528     6.2325    -3.5243 C       0      r0     0.0154
   1015 C           14.3509    10.4293    -2.3785 C       5      r5     0.2068
   1016 H           14.0497    10.1953    -5.9340 H       0      r0     0.0178
   1017 C          -14.2936    13.3633    -5.1433 C       0      r0    -0.0416
   1018 C          -13.8471    10.9064    -3.4888 C       5      r5    -0.0358
   1019 C          -12.5936    11.5958    -3.0411 C       5      r5     0.0051
   1020 C          -12.5269    11.8758    -6.4339 C       0      r0     0.0181
   1021 C          -11.7699    12.8605    -3.3672 C       7      r7     0.0000
   1022 C          -11.6283    11.2485    -5.7993 C       0      r0     0.0288
   1023 H          -11.3691     9.2201    -6.0732 H       0      r0     0.0151
   1024 C          -10.7358    10.1809    -5.7341 C       0      r0    -0.0187
   1025 C          -10.5926     9.9610    -3.2581 C       0      r0    -0.0053
   1026 C          -10.2575    13.1602    -3.5178 C       5      r5     0.0013
   1027 C          -10.2103    10.6506    -4.3252 C       0      r0    -0.0026
   1028 C           -9.5249    11.9803    -4.0312 C       5      r5     0.0059
   1029 C           -8.1858    12.3284    -3.9633 C       5      r5    -0.0251
   1030 H           -7.4609    11.6510    -4.2998 H       0      r0     0.0219
   1031 C           -6.6486    10.2291    -6.3457 C       5      r5    -0.0032
   1032 C           -5.2588    10.2419    -5.9446 C       5      r5    -0.0043
   1033 H           -4.5245    13.6104    -6.0735 H       0      r0     0.0187
   1034 C           -4.6987    11.5659    -5.4925 C       0      r0    -0.0056
   1035 C           -4.4104    12.7603    -5.3146 C       0      r0    -0.0209
   1036 C           -2.9453    12.9316    -5.4915 C       5      r5    -0.0066
   1037 C           -2.7972    10.0916    -2.5536 C       0      r0    -0.0116
   1038 H           -2.5578    11.1038    -4.8146 H       0      r0     0.0205
   1039 C           -2.4728   -13.6689    -4.5252 C       5      r5     0.0026
   1040 C           -2.0673    10.9058    -3.6995 C       0      r0    -0.0126
   1041 C           -1.8212    12.6486    -6.5971 C       5      r5    -0.0289
   1042 C           -1.0286    11.6389    -3.3547 C       0      r0     0.0066
   1043 C           -0.5446    13.5072    -5.9298 C       5      r5     0.0052
   1044 C            0.0645    12.3520    -2.7843 C       0      r0    -0.0221
   1045 C            0.6489    13.3484    -6.3122 C       0      r0    -0.0080
   1046 H            0.9671    12.7261    -3.1820 H       0      r0     0.0196
   1047 H            1.5207    10.3188    -4.1142 H       0      r0     0.0194
   1048 C            2.4239    10.0790    -3.2543 C       7      r7    -0.0199
   1049 H            2.2372   -13.1543    -4.8251 H       0      r0     0.0205
   1050 C            3.6133     9.9655    -3.3565 C       7      r7     0.0016
   1051 H            3.9294    11.9154    -2.5312 H       0      r0     0.0201
   1052 C            4.9734     9.7820    -3.3141 C       7      r7    -0.0063
   1053 C            6.1841     9.7788    -4.3975 C       0      r0     0.0001
   1054 H            6.2125    11.5571    -5.8154 H       0      r0     0.0246
   1055 C            6.4176    11.2344    -4.8714 C       0      r0    -0.0203
   1056 C            7.3860    11.6392    -3.9714 C       0      r0     0.0005
   1057 C            8.2444    11.7768    -2.8435 C       0      r0    -0.0049
   1058 C            8.8393     9.1425    -6.2875 C       0      r0    -0.0015
   1059 H            9.1158    12.3774    -5.4231 H       0      r0     0.0227
   1060 C            9.6117    10.9678    -2.6653 C       0      r0     0.0019
   1061 C            9.7396    12.5743    -6.3631 C       0      r0    -0.0205
   1062 C            9.8899     9.6210    -3.0491 C       0      r0     0.0169
   1063 C           10.8546    11.7046    -2.4125 C       0      r0     0.0396
   1064 H           11.5903    12.9943    -3.9725 H       0      r0     0.0258
   1065 C           11.7894    12.7619    -2.9394 C       0      r0    -0.0388
   1066 C           11.8637     9.6730    -4.9253 C       0      r0    -0.0828
   1067 C           11.8476    13.5606    -6.3423 C       0      r0     0.0024
   1068 H           11.4569     9.7433    -5.9689 H       0      r0     0.0288
   1069 H           12.8528    12.2363    -2.9420 H       0      r0     0.0409
   1070 C           12.9502    12.4570    -6.1928 C       0      r0    -0.0062
   1071 C           12.9194     9.9439    -4.1544 C       5      r5     0.2429
   1072 O           12.9025     9.8090    -2.6517 O       5      r5    -0.5087
   1073 C           13.9306    12.0015    -5.2362 C       0      r0     0.0062
   1074 C           14.1014    10.5619    -4.8881 C       5      r5    -0.0621
   1075 H          -12.9769   -13.1794    -0.9685 H       0      r0     0.0169
   1076 C          -12.1909   -13.0985    -1.8851 C       7      r7    -0.0194
   1077 C          -11.7070    -9.1365    -1.7175 C       0      r0    -0.0069
   1078 C          -11.5989    -9.6174    -0.1047 C       0      r0    -0.0199
   1079 C          -11.3086   -11.8454    -1.9556 C       7      r7    -0.0113
   1080 C          -11.1046   -13.0339     0.8983 C       5      r5    -0.0125
   1081 H          -11.1365   -11.6010    -0.8376 H       0      r0     0.0173
   1082 C          -10.7531   -10.4411     0.7151 C       0      r0     0.0235
   1083 C          -10.4056   -11.6339     1.2220 C       5      r5     0.0065
   1084 C           -9.7993   -13.5227     0.3379 C       5      r5    -0.0001
   1085 C           -8.8777   -11.1315    -1.8747 C       6      r6    -0.0242
   1086 H           -8.7771   -10.9481    -0.8314 H       0      r0     0.0384
   1087 C           -8.8387   -11.5997     1.1414 C       6      r6     0.0241
   1088 C           -8.7300   -12.9127     0.3350 C       6      r6    -0.0078
   1089 C           -7.6604   -10.9707     1.6187 C       6      r6    -0.0334
   1090 C           -7.5061   -13.4948    -0.4541 C       6      r6    -0.0154
   1091 C           -7.4712   -11.2057    -2.1391 C       6      r6     0.0225
   1092 C           -6.5314   -13.1440     0.2754 C       6      r6    -0.0098
   1093 C           -6.5410   -11.9457     1.1771 C       6      r6     0.0157
   1094 C           -5.5051   -11.3887     1.7534 C       6      r6    -0.0005
   1095 H           -5.2522   -13.4807     0.3217 H       0      r0     0.0149
   1096 H           -4.1409   -12.0528     0.1990 H       0      r0     0.0233
   1097 C           -4.3423   -11.5101     1.1795 C       6      r6    -0.0136
   1098 C           -3.1391   -10.7508     1.4835 C       6      r6    -0.0035
   1099 C           -2.5098    -9.3466    -2.0649 C       0      r0    -0.0081
   1100 C           -2.3499   -10.3739     0.2429 C       0      r0    -0.0012
   1101 H           -1.6939   -12.2755     0.3037 H       0      r0     0.0217
   1102 C           -1.4922   -11.4002    -0.2824 C       0      r0    -0.0191
   1103 H            0.2145    -9.5235     0.3846 H       0      r0     0.0149
   1104 C           -0.0409   -11.3995    -0.8200 C       0      r0     0.0027
   1105 C            0.7825   -12.5249    -1.5810 C       0      r0     0.0034
   1106 C            0.6181   -10.6287     0.1746 C       0      r0    -0.0151
   1107 H            1.2591   -13.6131     1.2503 H       0      r0     0.0169
   1108 C            1.8054   -13.6673    -1.0270 C       0      r0    -0.0278
   1109 C            1.9846   -10.5821     0.0569 C       0      r0    -0.0191
   1110 C            2.5900   -11.4749     1.0406 C       0      r0    -0.0055
   1111 H            2.4554    -9.5895    -0.0019 H       0      r0     0.0192
   1112 H            2.7497   -12.9551    -0.5852 H       0      r0     0.0185
   1113 C            3.0571   -12.1377     2.1483 C       0      r0    -0.0251
   1114 C            4.1437   -13.1469     1.7782 C       5      r5     0.0043
   1115 H            4.4327   -12.9923    -0.4070 H       0      r0     0.0209
   1116 C            5.3567   -10.0341     0.5954 C       5      r5    -0.0166
   1117 H            5.8736   -10.4949     1.4133 H       0      r0     0.0295
   1118 C            5.8213   -10.1461    -0.9394 C       5      r5     0.0012
   1119 C            6.1423   -11.3066    -1.4015 C       0      r0    -0.0013
   1120 C            6.3180   -12.7597    -1.8907 C       7      r7    -0.0006
   1121 C            7.6938   -13.6087    -2.0320 C       7      r7     0.0111
   1122 H            9.2163   -10.5035    -0.8970 H       0      r0     0.0157
   1123 C            9.6996   -12.2475     0.7465 C       6      r6    -0.0121
   1124 C            9.9297   -10.9976     0.0815 C       6      r6    -0.0168
   1125 C           10.0829   -12.8965     1.6238 C       6      r6     0.2225
   1126 C           10.4482   -10.1102     1.0417 C       6      r6    -0.0029
   1127 H           10.5860   -11.6957    -1.3518 H       0      r0     0.0261
   1128 C           11.7252   -10.9623     1.4226 C       6      r6     0.0028
   1129 C           11.3101   -12.0336    -2.0745 C       0      r0    -0.0331
   1130 C           12.0438   -13.3025    -1.8632 C       0      r0     0.0099
   1131 H           12.1584   -11.2647    -1.8409 H       0      r0     0.0181
   1132 C           12.9005   -13.5480    -0.7242 C       0      r0    -0.0069
   1133 C           12.8313   -10.3238     1.1184 C       7      r7    -0.0057
   1134 C           12.8481    -9.9620    -0.3248 C       7      r7    -0.0128
   1135 C           13.4772    -9.4924     2.2530 C       7      r7    -0.0059
   1136 C           14.1627    -9.8540    -1.0534 C       0      r0    -0.0080
   1137 C          -14.4410    -8.5918     1.6395 C       7      r7    -0.0110
   1138 C          -14.2468    -5.1036     1.0600 C       0      r0    -0.0037
   1139 H          -13.6420    -5.0431    -0.6642 H       0      r0     0.0070
   1140 C          -12.9385    -4.7423     1.3863 C       0      r0     0.0012
   1141 H          -12.7897    -7.2345     2.6951 H       0      r0     0.0248
   1142 C          -12.8565    -8.2542     2.1037 C       7      r7    -0.0127
   1143 C          -11.8196    -8.7120     0.9731 C       0      r0     0.0249
   1144 C          -11.0880    -6.4639     1.6476 C       6      r6    -0.0312
   1145 C          -10.8997    -7.6594     0.6901 C       6      r6     0.0018
   1146 C          -10.2057    -5.7187    -2.3373 C       6      r6    -0.0017
   1147 H          -10.1811    -6.6192    -2.8174 H       0      r0     0.0256
   1148 C           -9.8168    -7.8393    -0.3403 C       6      r6    -0.0518
   1149 H          -10.1729    -8.6714    -0.9671 H       0      r0     0.0388
   1150 C           -8.6056    -7.1660     1.6358 C       6      r6    -0.0530
   1151 C           -8.6044    -7.9053     0.4489 C       6      r6     0.2402
   1152 H           -7.9117    -5.4369    -0.5262 H       0      r0     0.0441
   1153 O           -7.1651    -8.1480    -0.1299 O       6      r6    -0.4995
   1154 C           -6.8334    -5.1948    -0.7825 C       5      r5    -0.0067
   1155 C           -6.3249    -6.9556     1.9599 C       6      r6    -0.0668
   1156 C           -6.0753    -7.7793     0.8459 C       6      r6     0.2554
   1157 C           -5.9956    -6.1233    -1.6585 C       6      r6     0.0415
   1158 C           -5.9604    -4.5899     0.1408 C       5      r5     0.0090
   1159 C           -4.7988    -8.0491     0.5812 C       0      r0    -0.0444
   1160 C           -4.5177    -4.7607    -0.2710 C       5      r5    -0.0139
   1161 C           -4.6585    -5.5165    -1.5373 C       6      r6    -0.0093
   1162 C           -3.4999    -8.1206     0.1846 C       0      r0     0.0025
   1163 H           -2.5921    -8.0178     0.8766 H       0      r0     0.0150
   1164 C           -2.6630    -9.1928    -0.5010 C       0      r0    -0.0036
   1165 H           -2.5603    -6.4926    -1.8845 H       0      r0     0.0188
   1166 C            2.0808    -5.3041     2.1806 C       6      r6    -0.0676
   1167 H            2.7267    -6.2139     2.2399 H       0      r0     0.0251
   1168 H            3.5364    -7.6060    -1.2280 H       0      r0     0.0184
   1169 H            3.7745    -4.9727    -1.6187 H       0      r0     0.0164
   1170 H            3.7408    -8.4593     1.3674 H       0      r0     0.0130
   1171 C            4.0914    -8.5539    -0.9019 C       5      r5    -0.0198
   1172 C            4.3735    -9.0199     0.5209 C       5      r5    -0.0126
   1173 C            5.0011    -9.0423    -1.6682 C       5      r5     0.0039
   1174 H            5.5298    -5.1434    -1.8754 H       0      r0     0.0171
   1175 H            7.7816    -8.3295    -1.5999 H       0      r0     0.0271
   1176 C            7.7130    -6.1759    -1.8097 C       6      r6     0.0042
   1177 C            8.1248    -6.0867    -0.4344 C       6      r6    -0.0022
   1178 C            8.3836    -4.5815    -0.0762 C       6      r6    -0.0044
   1179 C            8.6200    -8.6682     1.8486 C       6      r6    -0.0071
   1180 C            9.1455    -7.8119     0.7264 C       0      r0    -0.0100
   1181 C            9.4326    -6.8564    -0.4025 C       6      r6    -0.0028
   1182 H           10.3818    -7.9054     2.0059 H       0      r0     0.0237
   1183 C           10.3557    -4.6217    -0.9686 C       6      r6    -0.0236
   1184 H           10.1600    -8.7291    -1.1873 H       0      r0     0.0224
   1185 C           10.7040    -5.9573    -0.4483 C       6      r6    -0.0055
   1186 H           11.3054    -7.3528    -2.2361 H       0      r0     0.0231
   1187 C           11.1611    -8.3573    -1.6297 C       0      r0    -0.0487
   1188 C           11.9963    -6.3218    -0.5829 C       0      r0    -0.0082
   1189 C           12.0370    -8.7094    -0.4290 C       7      r7     0.0021
   1190 H           12.8524    -6.1348     1.7061 H       0      r0     0.0055
   1191 C           12.7255    -7.4451     0.0256 C       7      r7    -0.0079
   1192 C           13.2030    -5.5649    -1.1015 C       0      r0    -0.0024
   1193 C           13.3714    -5.1176     2.1133 C       6      r6    -0.0254
   1194 C           13.8338    -8.0419     0.5305 C       7      r7    -0.0056
   1195 C           14.3599    -5.0662    -0.3259 C       0      r0    -0.0286
   1196 C          -13.5674    -1.7174    -0.7869 C       0      r0    -0.0192
   1197 H          -13.5961    -2.3104    -1.7701 H       0      r0     0.0197
   1198 H          -12.6153    -4.5700     0.3165 H       0      r0     0.0917
   1199 H          -12.3981    -4.2794    -1.0721 H       0      r0     0.0773
   1200 C          -12.4150    -1.0686    -0.0477 C       5      r5     0.0050
   1201 C          -12.5166     0.2852     0.7235 C       5      r5     0.2062
   1202 C          -11.1213    -0.9721    -0.7110 C       5      r5     0.0124
   1203 H          -11.3014    -1.4570    -1.9071 H       0      r0     0.0239
   1204 O          -11.0605    -3.7223     0.1181 O       0      r0    -0.5355
   1205 C          -10.1976    -2.9259     0.7204 C       6      r6     0.3112
   1206 C           -9.7900    -1.4476     0.1075 C       6      r6    -0.0671
   1207 H           -9.6946    -0.9362     1.0140 H       0      r0     0.0289
   1208 C           -9.0317    -2.0729    -2.2411 C       6      r6    -0.0041
   1209 C           -8.7018    -3.1747     1.2663 C       6      r6    -0.0254
   1210 C           -8.8004    -1.8949    -0.8958 C       6      r6     0.0100
   1211 C           -7.5427    -2.9790     0.4442 C       6      r6    -0.0125
   1212 C           -7.4294    -1.8753    -0.5201 C       6      r6     0.0554
   1213 C           -6.5704    -0.7973     0.0080 C       5      r5    -0.0253
   1214 C           -6.3447    -0.3144     1.3644 C       5      r5     0.1928
   1215 C           -5.9981    -3.3224     0.9829 C       0      r0    -0.0246
   1216 C           -5.3332    -0.4431    -0.5962 C       6      r6    -0.0999
   1217 H           -4.9231    -3.4302     0.9882 H       0      r0     0.0317
   1218 C           -5.3290    -1.0054    -1.8261 C       6      r6     0.2120
   1219 H           -4.2227    -3.7065    -1.8468 H       0      r0     0.0392
   1220 H           -3.5480    -4.1702     1.6073 H       0      r0     0.0539
   1221 C           -3.3406    -4.4602     0.4816 C       0      r0    -0.0031
   1222 C           -3.0727    -3.5578    -1.7177 C       6      r6    -0.0130
   1223 C           -2.3190    -4.1055    -0.4903 C       6      r6     0.0300
   1224 O           -0.5699    -4.1916     2.1074 O       6      r6    -0.4511
   1225 C           -0.9400    -3.5309    -0.4688 C       6      r6    -0.0152
   1226 C           -0.3198    -2.5477    -1.6755 C       6      r6     0.0102
   1227 C            0.0226    -3.4214     0.7812 C       6      r6     0.1881
   1228 C            0.2623    -0.3697     1.8387 C       6      r6    -0.0127
   1229 C            0.6596    -0.4373    -1.9683 C       0      r0    -0.0125
   1230 C            0.8551    -1.8748    -1.5318 C       6      r6    -0.0006
   1231 H            0.9083    -1.2708     1.6184 H       0      r0     0.0183
   1232 C            1.3858    -3.4403     0.3960 C       6      r6    -0.0569
   1233 C            1.9356    -2.3844    -0.6014 C       6      r6    -0.0002
   1234 C            2.2719    -4.1453     1.4153 C       6      r6     0.0269
   1235 H            2.9368    -0.2968    -2.2827 H       0      r0     0.0482
   1236 C            2.9323    -2.4464    -1.4112 C       0      r0    -0.0095
   1237 H            4.9047    -0.9986     1.5694 H       0      r0     0.0231
   1238 C            5.8524    -3.9453     1.3177 C       0      r0    -0.0191
   1239 H            6.0210    -4.3551     0.3049 H       0      r0     0.0197
   1240 C            7.0756    -3.5888     1.9776 C       0      r0    -0.0104
   1241 C            8.1122    -3.5633     0.9578 C       6      r6    -0.0072
   1242 C            9.0722    -4.0219    -1.2263 C       6      r6    -0.0001
   1243 C            8.9088    -2.2865     0.6675 C       6      r6     0.0138
   1244 C            9.1066    -2.4901    -1.4935 C       6      r6    -0.0049
   1245 C            9.2961    -1.6172    -0.5742 C       6      r6     0.0033
   1246 C            9.6507    -0.1076    -0.5072 C       0      r0     0.0178
   1247 C            9.9053    -2.2617     1.7738 C       0      r0     0.0138
   1248 C           11.1081    -1.6368     1.4575 C       0      r0     0.0261
   1249 H           11.3594    -4.2851    -0.8039 H       0      r0     0.0170
   1250 H           11.1857    -1.7886    -0.6215 H       0      r0     0.0217
   1251 C           11.7623    -1.4804     0.1573 C       0      r0    -0.0055
   1252 H           12.1177    -3.3574     1.1645 H       0      r0     0.0095
   1253 C           12.5179    -3.8096     1.9524 C       6      r6     0.0160
   1254 C           13.0960    -1.5108     0.1644 C       0      r0     0.0156
   1255 H           13.7145    -3.1651    -1.2328 H       0      r0     0.0160
   1256 C           14.3221    -1.4901    -0.0260 C       0      r0     0.0663
   1257 C          -14.0412     2.1770    -1.9493 C       6      r6     0.2317
   1258 O          -13.5491     0.4508     1.8444 O       5      r5    -0.5096
   1259 C          -13.0285     1.8136     2.1125 C       5      r5     0.4295
   1260 O          -11.7739     2.3049     1.3284 O       5      r5    -0.5273
   1261 C          -11.5570     1.1909     0.2720 C       5      r5     0.1986
   1262 C          -10.7464     0.5844    -0.4327 C       5      r5    -0.0836
   1263 C           -9.8356     1.5094    -0.9983 C       0      r0     0.0380
   1264 H           -8.4030     1.0174     0.6042 H       0      r0     0.0346
   1265 C           -8.7567     1.7371    -0.1175 C       0      r0    -0.0165
   1266 C           -8.4384     2.8105     0.7549 C       0      r0     0.0291
   1267 C           -7.9222     3.9511     1.4034 C       7      r7    -0.0030
   1268 O           -4.8846     0.3901     1.7097 O       5      r5    -0.4863
   1269 C           -4.5469     0.1960     0.3070 C       6      r6     0.2274
   1270 C           -3.9605     4.4011    -0.8797 C       5      r5     0.0055
   1271 C           -3.1062     0.4608    -0.2293 C       6      r6     0.1636
   1272 H           -3.6297     3.6088     0.8444 H       0      r0     0.0277
   1273 C           -3.2887     3.4190    -0.1447 C       0      r0    -0.0125
   1274 O           -2.8191     0.0397    -1.7484 O       6      r6    -0.4806
   1275 C           -2.0805     0.7575     0.2979 C       0      r0     0.0069
   1276 C           -1.7360     3.5083    -0.4097 C       0      r0    -0.0099
   1277 H           -1.5068     4.1825    -1.2313 H       0      r0     0.0150
   1278 C           -1.5570     1.2441     1.3930 C       6      r6     0.0107
   1279 C           -0.6885     2.9001    -0.2298 C       0      r0    -0.0123
   1280 C           -0.4182     2.0081     0.9879 C       6      r6    -0.0029
   1281 H            0.3195     3.0715    -0.7368 H       0      r0     0.0170
   1282 H            0.5021     4.7119    -2.1614 H       0      r0     0.0124
   1283 C            0.5453     0.9599     1.2159 C       6      r6    -0.0021
   1284 C            1.8345     1.5170    -1.8078 C       0      r0     0.0133
   1285 C            2.0049     0.0090    -1.9226 C       0      r0    -0.0083
   1286 C            1.8356     1.8477     0.9966 C       5      r5    -0.0060
   1287 C            2.2706     2.1223    -0.4413 C       5      r5    -0.0079
   1288 C            2.6475     2.5933     1.9152 C       5      r5    -0.0068
   1289 C            2.7860     3.8305     1.1312 C       5      r5    -0.0062
   1290 C            3.0277     3.2678    -0.2747 C       5      r5    -0.0017
   1291 C            4.2728     3.8944    -0.8484 C       6      r6     0.0006
   1292 C            5.4961     4.0329    -0.4712 C       6      r6    -0.0099
   1293 H            5.7534     3.8568     0.6273 H       0      r0     0.0184
   1294 H            7.3829     3.5652     1.7511 H       0      r0     0.0212
   1295 O            9.4541     0.7165     1.8483 O       6      r6    -0.4205
   1296 C            9.9078     1.9002     0.7247 C       6      r6     0.1528
   1297 C            9.8977     1.2272    -0.5969 C       0      r0     0.2229
   1298 H           10.6750     3.8283     0.3232 H       0      r0     0.0446
   1299 O           10.3016     1.8849    -1.9129 O       0      r0    -0.4673
   1300 C           10.3120     3.0467     1.0461 C       6      r6    -0.0420
   1301 H           13.6298     1.5098     1.5931 H       0      r0     0.1082
   1302 C           13.0723     3.4762     1.3044 C       5      r5    -0.0412
   1303 C           13.7379     3.0253     0.0078 C       6      r6     0.2466
   1304 O           13.8307     1.7956    -0.8394 O       6      r6    -0.4711
   1305 C           13.8621     4.3285    -0.4988 C       6      r6    -0.0498
   1306 C          -14.4296     4.5822    -1.7386 C       6      r6     0.0410
   1307 H          -14.2938     5.4243     0.9594 H       0      r0     0.0226
   1308 H          -13.6969     6.8386     1.8023 H       0      r0     0.0167
   1309 C          -13.3508     7.1492    -0.3644 C       0      r0    -0.0086
   1310 C          -12.3728     7.7564    -0.7181 C       0      r0     0.0047
   1311 C          -11.3145     8.4280    -1.2158 C       0      r0    -0.0132
   1312 H          -10.9815     9.4009    -0.7280 H       0      r0     0.0162
   1313 C           -9.9389     5.9189    -2.2686 C       7      r7    -0.0009
   1314 C           -9.1128     4.9784    -1.2823 C       7      r7     0.0061
   1315 C           -8.1995     5.8664    -0.4183 C       5      r5    -0.0044
   1316 C           -8.1376     8.4283    -1.3855 C       7      r7     0.0057
   1317 C           -8.0893     7.4317    -0.4629 C       5      r5    -0.0060
   1318 C           -7.8694     5.6065     0.9200 C       5      r5    -0.0025
   1319 C           -7.9723     6.6201     1.9049 C       6      r6    -0.0063
   1320 C           -7.6843     7.8135     0.8807 C       6      r6     0.0021
   1321 H           -6.5351     6.2474    -1.4192 H       0      r0     0.0228
   1322 H           -5.7605     5.0602     1.0294 H       0      r0     0.0203
   1323 C           -5.4933     6.0372    -1.1088 C       5      r5    -0.0164
   1324 C           -5.0444     5.2719     0.1507 C       5      r5    -0.0182
   1325 C           -4.2250     6.7492     2.1105 C       7      r7     0.0023
   1326 C           -4.1221     8.1602     2.2032 C       5      r5     0.0066
   1327 C           -3.9713     4.8634    -2.2171 C       5      r5    -0.0220
   1328 C           -4.0563     6.2833     0.7645 C       7      r7    -0.0047
   1329 C           -3.6829     9.2691     1.0558 C       6      r6    -0.0026
   1330 C           -3.2340     9.1743    -0.3281 C       6      r6    -0.0023
   1331 C           -2.6659     6.6485     0.1636 C       7      r7    -0.0325
   1332 C           -2.6609     7.9015    -0.6155 C       7      r7     0.0004
   1333 H           -2.1639     5.9222    -0.5539 H       0      r0     0.0172
   1334 H           -2.1442     6.2692     1.0808 H       0      r0     0.0236
   1335 C           -1.6515     8.0090    -1.8573 C       3      r3    -0.0039
   1336 H           -0.6364     7.6756     0.9641 H       0      r0     0.0217
   1337 C            0.0150     8.4191     1.2285 C       0      r0    -0.0158
   1338 C            0.2349     6.5776    -1.2250 C       0      r0    -0.0107
   1339 C            0.6498     8.9116     0.1378 C       0      r0     0.0034
   1340 H            0.6661     5.2120     0.1880 H       0      r0     0.0179
   1341 C            1.1102     6.0873    -0.3170 C       0      r0    -0.0206
   1342 C            2.3930     6.2574     0.4255 C       0      r0     0.0022
   1343 C            2.6811     5.2444     1.4222 C       0      r0    -0.0025
   1344 H            3.0745     8.6782     2.4077 H       0      r0     0.0669
   1345 C            3.3075     7.4035     0.3969 C       0      r0    -0.0031
   1346 C            3.7349     8.6697     1.3167 C       0      r0     0.0012
   1347 C            4.0264     7.3417    -0.5728 C       0      r0     0.0025
   1348 C            4.8881     8.1787     2.0140 C       0      r0    -0.0025
   1349 C            4.9302     7.6892    -1.4454 C       0      r0    -0.0248
   1350 C            5.2372     9.1937    -1.9595 C       7      r7    -0.0014
   1351 C            6.0505     5.0864    -1.3016 C       6      r6    -0.0198
   1352 C            6.2514     8.5914     2.0600 C       7      r7     0.0058
   1353 H            6.6905     8.7620    -0.3414 H       0      r0     0.0249
   1354 H            6.6308     5.7867    -0.5504 H       0      r0     0.0179
   1355 C            6.9122     8.7294     0.7115 C       7      r7    -0.0190
   1356 C            8.0834     7.9827     0.4796 C       7      r7    -0.0019
   1357 C            8.2397     6.6139     1.3806 C       7      r7    -0.0033
   1358 C            8.3074     5.5376     0.3748 C       0      r0    -0.0306
   1359 C            8.3086     5.2199    -1.9353 C       0      r0     0.0100
   1360 H            8.1855     4.8326     1.1212 H       0      r0     0.0219
   1361 C            9.0178     8.4658    -0.6210 C       0      r0    -0.0068
   1362 C            9.0890     5.2155    -0.8364 C       0      r0     0.0137
   1363 C            9.0985     8.7676    -2.0777 C       0      r0     0.0008
   1364 C           10.5338     5.8791    -0.9313 C       0      r0    -0.0159
   1365 H           11.1517     5.6577     0.0947 H       0      r0     0.0193
   1366 H           12.0120     8.6991    -0.5508 H       0      r0     0.0407
   1367 C           12.8248     5.0060     1.2008 C       5      r5    -0.0042
   1368 C           13.7385     5.5549     0.2197 C       5      r5    -0.0131
   1369 C           13.7418     6.6624    -0.8067 C       5      r5     0.0081
   1370 C           14.0265     5.8446    -2.2238 C       5      r5    -0.0028
   1371 C           14.3288     7.8420    -0.4488 C       0      r0     0.0033
   1372 C           14.0826     9.0393    -0.0826 C       5      r5     0.0068
   1373 C          -14.3442    12.3067     1.0657 C       0      r0    -0.0032
   1374 C          -13.8285    10.4693    -1.2173 C       5      r5    -0.0429
   1375 C          -13.9093    10.0730     0.1544 C       5      r5    -0.0058
   1376 C          -13.1242    12.7980     1.7858 C       0      r0    -0.0119
   1377 C          -12.9069    11.5298    -1.5453 C       5      r5    -0.0283
   1378 H          -12.7570    10.3412     0.3502 H       0      r0     0.0164
   1379 H          -12.0100    11.8513    -1.1184 H       0      r0     0.0196
   1380 C          -12.1392    13.5360     1.2063 C       0      r0    -0.0067
   1381 C          -10.6480    10.8491     2.0917 C       0      r0    -0.0047
   1382 C          -10.3668    11.2693     0.8371 C       0      r0    -0.0206
   1383 H          -10.7464    10.7175     0.0896 H       0      r0     0.0140
   1384 C           -9.7183    12.4017     0.0443 C       0      r0    -0.0215
   1385 H           -9.3421    12.1655    -1.0540 H       0      r0     0.0133
   1386 H           -7.5465    10.1852     1.1639 H       0      r0     0.0171
   1387 C           -7.7494     9.0768     1.5515 C       6      r6    -0.0158
   1388 H           -7.8919    10.4728    -1.1204 H       0      r0     0.0182
   1389 H           -7.4810    13.3327    -1.3512 H       0      r0     0.0184
   1390 C           -7.3301     9.6965    -1.4980 C       0      r0    -0.0396
   1391 H           -6.2582     9.8616    -1.1353 H       0      r0     0.0228
   1392 C           -3.9884    10.5017     1.5949 C       6      r6    -0.0053
   1393 C           -3.2298    11.5171     0.9601 C       6      r6    -0.0075
   1394 C           -2.9036    11.6624    -0.5825 C       6      r6    -0.0004
   1395 C           -3.1888    10.4629    -1.2204 C       6      r6     0.0003
   1396 C           -2.2210    12.9405    -1.0007 C       7      r7    -0.0059
   1397 C           -1.9096    12.0514     1.2531 C       7      r7    -0.0020
   1398 C           -0.8052    12.6238     1.2596 C       7      r7    -0.0031
   1399 C           -0.8401    12.7947    -1.4273 C       7      r7     0.0042
   1400 C           -0.1653    12.8676    -0.0761 C       7      r7     0.0007
   1401 C            0.8983     9.1531    -1.1844 C       0      r0    -0.0011
   1402 C            0.9698    13.6058     0.2543 C       0      r0    -0.0199
   1403 H            2.0085    12.6512    -1.6414 H       0      r0     0.0161
   1404 C            2.2080     9.6739    -1.7105 C       7      r7    -0.0006
   1405 C            2.7890    10.8776     1.6927 C       3      r3     0.1530
   1406 C            3.1994    10.0704    -0.7622 C       7      r7    -0.0003
   1407 C            3.3519    10.0358     0.7013 C       0      r0    -0.0320
   1408 C            4.6934    10.1787    -1.2172 C       7      r7    -0.0014
   1409 C            4.5905   -13.5992     0.5250 C       5      r5    -0.0170
   1410 C            4.7493    12.5290    -2.2062 C       7      r7    -0.0222
   1411 C            5.3438    12.5606     0.9340 C       5      r5    -0.0044
   1412 C            5.2882    11.6525    -1.3361 C       7      r7    -0.0023
   1413 C            6.6074    11.9236     0.5518 C       5      r5     0.0376
   1414 C            6.5356    12.0217    -0.7553 C       7      r7    -0.0029
   1415 C            7.0513    11.1929     1.7515 C       5      r5    -0.0143
   1416 C            7.6269    12.3043    -1.7106 C       7      r7     0.0218
   1417 H            7.7499    10.8039     2.0995 H       0      r0     0.0465
   1418 O            9.6918    12.9096     1.3457 O       6      r6    -0.4608
   1419 C            9.8124     9.5635    -0.2391 C       0      r0     0.0051
   1420 C           10.7024    10.5258    -0.1487 C       0      r0     0.0286
   1421 H           11.5801    11.8168    -0.9002 H       0      r0     0.0352
   1422 C           11.5534    11.4540    -0.0059 C       0      r0     0.0093
   1423 C           12.8171     9.2791    -0.1536 C       5      r5     0.0179
   1424 C           12.8421    10.7542     0.1775 C       5      r5    -0.0170
   1425 H           13.1082    11.3293    -0.7225 H       0      r0     0.0426
   1426 C           13.7267    13.0045     0.2114 C       0      r0    -0.0114
   1427 C           14.0362    10.8497     1.0347 C       5      r5    -0.0171
   1428 H           14.2638    10.0545     1.9201 H       0      r0     0.0149
   1429 C          -14.4135   -11.3259     5.4726 C       0      r0     0.0454
   1430 C          -13.2424   -10.8644     4.8434 C       0      r0    -0.0184
   1431 C          -12.3047   -10.3366     3.9462 C       0      r0    -0.0079
   1432 H          -11.3941   -10.8612     3.3699 H       0      r0     0.0624
   1433 H          -10.9533   -13.1710     4.1533 H       0      r0     0.0274
   1434 H          -10.3729    -9.7672     5.4261 H       0      r0    -0.0027
   1435 C           -9.2612   -13.3256     5.2820 C       6      r6     0.0137
   1436 O           -9.4508    -9.6799     3.2831 O       6      r6    -0.5133
   1437 C           -9.3431    -9.5881     4.7832 C       6      r6     0.2168
   1438 H           -8.5483    13.6541     2.6619 H       0      r0     0.0191
   1439 C           -8.1849   -12.8030     4.7536 C       6      r6     0.0012
   1440 C           -8.1727    -9.2039     5.6510 C       6      r6    -0.0551
   1441 C           -8.0453   -10.1486     2.7506 C       6      r6     0.2339
   1442 C           -7.8626   -13.1062     3.3687 C       5      r5    -0.0199
   1443 C           -6.8963   -12.1853     5.3849 C       6      r6    -0.0061
   1444 C           -6.8777    -9.8218     3.3405 C       6      r6    -0.0612
   1445 C           -6.4672   -13.3939     3.6291 C       6      r6     0.0066
   1446 C           -5.6093   -12.5511     4.7712 C       6      r6    -0.0093
   1447 C           -5.5108   -10.1957     2.5832 C       6      r6     0.0107
   1448 H           -5.6460   -11.2254     4.5464 H       0      r0     0.0214
   1449 C           -4.7254   -13.5247     5.6764 C       6      r6    -0.0360
   1450 C           -4.5824    -9.4559     4.9032 C       6      r6    -0.0000
   1451 C           -4.4464    -9.8573     3.4234 C       6      r6    -0.0062
   1452 H           -3.7192   -13.1554     6.1188 H       0      r0     0.0246
   1453 C           -3.5816    -9.3215     5.9494 C       0      r0    -0.0103
   1454 C           -3.0966   -10.2906     2.8371 C       6      r6    -0.0000
   1455 C           -2.8812   -13.1484     3.8594 C       0      r0    -0.0264
   1456 C           -2.9043   -10.6278     6.0062 C       0      r0    -0.0026
   1457 H           -2.6676   -13.2445     2.8521 H       0      r0     0.0232
   1458 C           -2.1236   -12.1438     4.3376 C       7      r7     0.0041
   1459 C           -2.2523   -11.8133     5.9236 C       7      r7    -0.0044
   1460 C           -1.6792   -10.0805     3.2422 C       0      r0    -0.0227
   1461 H           -1.1332    -9.1891     3.0469 H       0      r0     0.0199
   1462 C           -1.1255   -11.3582     3.7011 C       7      r7     0.0006
   1463 C            0.0169   -13.1841     6.3478 C       7      r7     0.0021
   1464 C            0.2950   -11.1904     4.2756 C       7      r7    -0.0082
   1465 C            0.3443   -12.3726     5.0922 C       7      r7    -0.0021
   1466 C            0.8163    -9.9171     4.6483 C       0      r0    -0.0034
   1467 C            0.6965    -9.4100     5.9576 C       0      r0    -0.0101
   1468 H            2.5204   -12.1323     3.0577 H       0      r0     0.0221
   1469 H            2.7765    -9.4818     5.0181 H       0      r0     0.0178
   1470 H            3.1672   -12.2382     5.5005 H       0      r0     0.0192
   1471 C            3.6140   -10.2327     4.8985 C       6      r6    -0.0251
   1472 C            3.7885   -11.6816     4.8046 C       6      r6    -0.0088
   1473 C            4.6890    -9.7112     4.1963 C       6      r6    -0.0191
   1474 C            5.1247   -12.3379     4.7748 C       6      r6    -0.0656
   1475 C            6.0717   -10.3885     3.8967 C       6      r6    -0.0421
   1476 C            6.3044   -11.6364     4.5558 C       6      r6     0.2366
   1477 C            7.0839    -9.8109     3.4002 C       6      r6    -0.0423
   1478 O            7.6495   -12.2066     4.2724 O       5      r5    -0.4573
   1479 C            8.0829   -10.9097     3.5729 C       6      r6     0.2198
   1480 C            9.2108   -10.7910     3.1959 C       6      r6    -0.0280
   1481 C            9.5083    -9.9600     2.1906 C       6      r6    -0.0037
   1482 H           10.5928    -9.9350     7.6578 H       0      r0    -0.0289
   1483 C           11.3104   -12.1351     2.2716 C       6      r6    -0.0371
   1484 H           12.2407   -11.0094     4.4956 H       0      r0     0.0388
   1485 C           12.0819   -13.0730     2.8737 C       6      r6     0.0262
   1486 C           13.3417   -11.4539     4.3549 C       0      r0     0.0013
   1487 C           13.4488   -12.7579     3.6437 C       0      r0     0.0303
   1488 C           13.5268   -10.1286     3.4498 C       7      r7    -0.0130
   1489 C           13.9728    -9.1108     4.4625 C       5      r5    -0.0068
   1490 C          -13.7529    -8.2980     4.1075 C       5      r5    -0.0016
   1491 C          -13.3870    -8.0009     5.5965 C       5      r5     0.0063
   1492 C          -12.9099    -9.0746     3.2664 C       7      r7     0.0152
   1493 C          -12.2131    -7.7544     6.3201 C       7      r7     0.0008
   1494 H          -12.3001    -4.8333     4.1177 H       0      r0     0.0552
   1495 C          -11.8439    -5.2348     2.2101 C       0      r0     0.0586
   1496 C          -11.5241    -4.6840     3.5282 C       0      r0     0.0171
   1497 C          -11.0530    -5.4845     5.9816 C       0      r0     0.0286
   1498 C          -10.9980    -6.7652     6.2485 C       7      r7     0.0044
   1499 C           -9.9031    -6.5584     2.1356 C       6      r6     0.2155
   1500 C           -9.6749    -7.4325     6.0273 C       7      r7    -0.0169
   1501 O           -9.4114    -5.4044     3.1846 O       5      r5    -0.4880
   1502 H           -9.1044    -7.4916     5.0805 H       0      r0     0.0448
   1503 C           -7.9517    -5.9282     3.2754 C       5      r5     0.2297
   1504 C           -7.6452    -6.9884     2.4319 C       6      r6     0.0049
   1505 C           -6.9904    -8.9209     4.5057 C       6      r6     0.0386
   1506 C           -6.5243    -4.7153     5.1332 C       0      r0     0.2636
   1507 C           -6.8531    -5.6113     3.9554 C       5      r5    -0.1001
   1508 H           -5.6885    -8.5276     6.1680 H       0      r0     0.0241
   1509 C           -5.9096    -8.7418     5.1069 C       6      r6    -0.0247
   1510 C           -5.6789    -6.3890     3.1817 C       5      r5     0.0290
   1511 C           -4.5937    -6.7459     3.8305 C       0      r0     0.0342
   1512 C           -3.3214    -7.8071     5.7355 C       0      r0     0.0040
   1513 C           -3.4338    -7.3056     4.2874 C       0      r0    -0.0129
   1514 H           -2.4722    -6.9793     3.7632 H       0      r0     0.0277
   1515 H           -0.9511    -6.5519     2.9999 H       0      r0     0.0453
   1516 C           -0.0111    -6.1431     3.3192 C       0      r0    -0.0294
   1517 C            0.5965    -5.2228     2.5035 C       6      r6     0.2001
   1518 C            1.1992    -7.4237     3.6291 C       0      r0    -0.0311
   1519 H            1.6902    -6.7981     4.4588 H       0      r0     0.0200
   1520 C            1.4419    -8.8950     3.7627 C       0      r0    -0.0267
   1521 C            1.8631    -4.5411     5.4783 C       0      r0    -0.0208
   1522 H            1.8826    -7.5043     2.7499 H       0      r0     0.0139
   1523 H            1.9658    -9.5217     3.0679 H       0      r0     0.0159
   1524 H            2.6714    -4.9708     6.2133 H       0      r0     0.0186
   1525 H            2.9013    -7.0298     5.5288 H       0      r0     0.0179
   1526 C            3.6737    -6.7781     4.8548 C       0      r0    -0.0376
   1527 H            3.3955    -7.4641     4.0911 H       0      r0     0.0165
   1528 C            3.9133    -5.4416     4.1581 C       6      r6     0.0084
   1529 C            4.6026    -6.9182     6.1758 C       0      r0    -0.0210
   1530 C            4.5717    -5.6818     2.8289 C       6      r6    -0.0055
   1531 H            4.9255    -8.7853     3.8345 H       0      r0     0.0221
   1532 C            5.1892    -8.0530     6.4500 C       0      r0    -0.0034
   1533 H            5.1279    -6.0254     6.6923 H       0      r0     0.0151
   1534 C            5.5710    -6.8097     2.5397 C       0      r0    -0.0064
   1535 C            6.4975    -7.6015     2.3623 C       0      r0    -0.0053
   1536 H            6.9462    -5.0003     6.3435 H       0      r0     0.0138
   1537 C            7.3901    -8.6124     2.6188 C       6      r6     0.0014
   1538 C            8.0874    -5.2515     5.8812 C       0      r0    -0.0197
   1539 H            8.8204    -6.5059     3.5591 H       0      r0     0.0251
   1540 H            9.1194    -8.2444     4.4906 H       0      r0     0.0193
   1541 C            9.0911    -5.9320     6.5207 C       5      r5     0.0050
   1542 C            9.3907    -7.1141     4.1770 C       0      r0    -0.0300
   1543 C            9.9883    -6.3805     5.4292 C       5      r5    -0.0049
   1544 C           10.3619    -7.3806     2.9817 C       0      r0    -0.0527
   1545 H           10.8432    -6.3678     3.0301 H       0      r0     0.0249
   1546 H           10.8671    -8.8970     4.6722 H       0      r0     0.0180
   1547 H           11.2961    -8.1240     3.4431 H       0      r0     0.0164
   1548 C           11.3947    -6.7154     5.8234 C       5      r5     0.0397
   1549 C           11.7003    -8.1748     5.3356 C       0      r0    -0.0251
   1550 H           12.6891    -6.4993     3.1730 H       0      r0     0.0011
   1551 C           13.1761    -8.4996     5.4936 C       5      r5     0.0034
   1552 C           13.6897    -6.0016     3.2985 C       6      r6     0.1599
   1553 O           13.6485    -5.1924     4.7549 O       6      r6    -0.4975
   1554 C           14.1615    -7.6475     6.1072 C       5      r5     0.0073
   1555 H           14.4238    -6.6370     3.3901 H       0      r0     0.0123
   1556 O          -12.4975    -2.2738     4.1438 O       5      r5    -0.4138
   1557 C          -11.6544    -0.5908     4.3276 C       5      r5     0.1537
   1558 C          -11.5068    -3.1986     3.4925 C       5      r5     0.2176
   1559 H          -10.7358    -2.2154     6.1402 H       0      r0     0.0727
   1560 C          -10.3978    -1.2471     4.1676 C       5      r5     0.1829
   1561 C          -10.1417    -2.5865     3.4967 C       5      r5    -0.0189
   1562 C          -10.3386    -4.2585     6.3793 C       0      r0     0.0046
   1563 O           -9.1331    -0.2655     3.9221 O       5      r5    -0.4492
   1564 C           -8.7820    -3.7887     6.4374 C       0      r0     0.0080
   1565 C           -8.9055    -2.4851     2.5300 C       5      r5    -0.0232
   1566 C           -8.4204    -1.1676     2.7357 C       5      r5     0.1803
   1567 C           -7.7014    -4.2714     5.7079 C       0      r0    -0.0477
   1568 C           -7.3029    -0.5313     2.1961 C       0      r0    -0.0546
   1569 H           -7.0042    -1.3477     4.7391 H       0      r0     0.0569
   1570 H           -6.2568    -3.3151     2.2223 H       0      r0     0.0372
   1571 C           -6.4393    -0.9945     5.4411 C       0      r0     0.0155
   1572 C           -5.6573    -2.0014     6.0132 C       0      r0    -0.0593
   1573 O           -5.1349    -4.2699     5.4359 O       0      r0    -0.5092
   1574 C           -5.1027    -3.0488     6.3643 C       0      r0     0.2599
   1575 H           -2.9826    -1.1293     3.5963 H       0      r0     0.0650
   1576 C           -2.4705    -0.6792     4.4032 C       0      r0    -0.0216
   1577 C           -1.1372    -1.3979     4.1408 C       0      r0     0.0260
   1578 C           -0.5307    -1.8836     5.3689 C       0      r0     0.0047
   1579 C           -0.6331    -0.4460     3.0695 C       6      r6     0.0063
   1580 H           -0.2796    -4.6492     5.7714 H       0      r0     0.0409
   1581 C            0.3028    -2.4447     6.0962 C       0      r0     0.0011
   1582 C            0.5401    -4.5421     6.4650 C       0      r0    -0.0191
   1583 H            1.4283    -2.1838     2.8123 H       0      r0     0.0319
   1584 C            1.9543    -3.6452     4.6806 C       0      r0     0.0195
   1585 C            2.1723    -2.6079     3.5898 C       0      r0    -0.0195
   1586 C            2.8321    -3.3024     2.4848 C       0      r0    -0.0078
   1587 H            4.0416    -1.1243     3.1475 H       0      r0     0.0223
   1588 C            4.0785    -3.2968     3.0611 C       6      r6    -0.0005
   1589 C            4.3512    -4.2559     4.9619 C       6      r6    -0.0249
   1590 C            4.2555    -2.8284     4.3934 C       6      r6     0.0001
   1591 C            4.4513    -1.8938     6.4091 C       0      r0    -0.0078
   1592 H            4.9112    -4.3290     5.7229 H       0      r0     0.0183
   1593 C            4.8988    -0.7795     2.6299 C       0      r0    -0.0368
   1594 C            4.8373    -4.3835     2.3017 C       6      r6     0.0026
   1595 C            5.0873    -1.8340     5.3660 C       0      r0    -0.0057
   1596 C            5.9825    -0.3467     3.4842 C       5      r5    -0.0098
   1597 C            5.8293    -0.7511     4.8052 C       5      r5     0.0029
   1598 C            7.1166    -0.6766     5.2275 C       5      r5    -0.0107
   1599 H            6.9255    -3.2066     3.0756 H       0      r0     0.0225
   1600 C            7.5945    -2.9459     6.2283 C       4      r4    -0.0158
   1601 C            7.8499    -1.5424     6.1059 C       4      r4     0.0088
   1602 C            8.5666    -3.8738     5.3631 C       0      r0     0.0084
   1603 C            9.1919    -3.3951     4.2036 C       0      r0     0.0099
   1604 C            9.7944    -2.9630     3.0688 C       0      r0     0.0018
   1605 H           10.8165     0.0178     5.5517 H       0      r0     0.0683
   1606 C           11.7789    -0.9843     2.8289 C       0      r0    -0.0099
   1607 C           12.3401    -1.9396     3.7675 C       5      r5     0.2238
   1608 O           12.3711    -1.7201     5.2829 O       5      r5    -0.4882
   1609 C           12.5396    -3.2798     3.2566 C       6      r6    -0.0853
   1610 C           13.2556    -2.9739     5.7819 C       5      r5     0.1995
   1611 C           13.1579    -3.8731     4.5026 C       6      r6     0.2648
   1612 C          -14.4070     3.0558     4.2226 C       6      r6     0.2444
   1613 O          -14.2082     4.0937     5.4126 O       6      r6    -0.5210
   1614 C          -13.3030     2.5571     3.5204 C       6      r6    -0.1069
   1615 C          -12.1568     2.9404     4.2720 C       6      r6     0.0735
   1616 C          -11.8619     4.0233     5.0940 C       6      r6    -0.0628
   1617 C          -11.6823     0.5814     4.7517 C       0      r0     0.0486
   1618 C          -11.4781     1.8446     5.1534 C       6      r6     0.0356
   1619 H          -10.5230     3.5503     2.7874 H       0      r0     0.0885
   1620 C          -10.5078     2.3414     6.0362 C       6      r6    -0.0427
   1621 C           -9.9549     4.2270     3.3661 C       0      r0    -0.0691
   1622 C           -9.6518     3.6677     5.9099 C       6      r6     0.0039
   1623 H           -9.2525     3.7115     3.9567 H       0      r0     0.0372
   1624 C           -8.4469     3.7599     6.3706 C       6      r6    -0.0356
   1625 H           -7.2790     3.1368     4.6259 H       0      r0     0.0263
   1626 C           -7.0622     3.7849     2.3248 C       7      r7    -0.0022
   1627 C           -6.1654     4.4651     3.1780 C       7      r7     0.0047
   1628 C           -6.2956     2.7328     4.7447 C       0      r0    -0.0124
   1629 C           -6.2001     1.5689     5.3159 C       0      r0     0.0176
   1630 C           -5.7920     0.3314     5.6624 C       0      r0     0.0132
   1631 C           -5.1775     3.2021     3.6321 C       0      r0    -0.0065
   1632 H           -5.1366     2.6182     2.7140 H       0      r0     0.0667
   1633 C           -3.7260     3.4598     4.0801 C       6      r6     0.0185
   1634 C           -3.2009     0.8358     6.3642 C       0      r0    -0.0019
   1635 C           -2.8593     0.0971     5.3362 C       0      r0     0.0119
   1636 C           -2.3975     2.8650     3.7634 C       6      r6    -0.0536
   1637 C           -1.1408     0.9486     2.9064 C       6      r6     0.0031
   1638 C           -1.0812     3.0745     3.8894 C       6      r6     0.2005
   1639 O           -0.4141     4.1645     4.8481 O       6      r6    -0.4569
   1640 H           -0.6695     0.8536     5.2029 H       0      r0     0.0255
   1641 C           -0.2694     1.8352     3.5703 C       0      r0    -0.0249
   1642 C            0.4133     0.8404     5.7521 C       0      r0    -0.0058
   1643 C            1.1724     1.4761     3.6673 C       5      r5     0.0080
   1644 C            1.5543     1.2344     4.9726 C       5      r5     0.0108
   1645 C            2.2827     2.3347     3.2410 C       5      r5     0.0064
   1646 C            2.8717     1.6757     5.3323 C       6      r6     0.0025
   1647 C            3.3945     2.3127     4.1198 C       6      r6     0.0009
   1648 C            4.7935     2.7775     4.3497 C       6      r6     0.0006
   1649 C            4.8964     3.2593     5.5858 C       6      r6     0.0020
   1650 C            6.1051     3.5124     3.5847 C       5      r5    -0.0035
   1651 C            6.1178     4.1670     5.6320 C       5      r5     0.0014
   1652 C            6.8032     4.1772     4.3946 C       5      r5    -0.0067
   1653 C            6.7483     1.4692     2.8802 C       0      r0     0.0213
   1654 C            6.8899     2.8346     2.5333 C       0      r0    -0.0082
   1655 C            7.0470     0.1138     3.1701 C       5      r5     0.0358
   1656 C            7.9109    -0.0457     4.1447 C       5      r5     0.0206
   1657 C            9.0869     0.5647     4.4858 C       0      r0     0.0005
   1658 C            9.7692     0.6634     5.8199 C       0      r0    -0.0333
   1659 H            9.6050     2.9826     5.7556 H       0      r0     0.0213
   1660 C           10.2247     1.0477     3.5730 C       6      r6     0.1179
   1661 C           10.3763     3.4381     2.4726 C       6      r6     0.0326
   1662 C           10.6738     2.5132     3.5674 C       6      r6    -0.0185
   1663 C           11.6555     0.2371     3.5987 C       6      r6     0.0274
   1664 C           11.8336     3.1865     4.3887 C       6      r6     0.0081
   1665 C           11.8162     4.3379     5.3283 C       0      r0     0.0382
   1666 C           12.7758     1.0706     4.0125 C       6      r6    -0.0067
   1667 C           13.2401     2.3912     2.0937 C       0      r0    -0.0146
   1668 C           13.1850     2.5276     3.6245 C       6      r6    -0.0308
   1669 H           13.3731     0.2529     4.4724 H       0      r0     0.0903
   1670 C          -14.1719     7.0638     2.8354 C       0      r0    -0.0189
   1671 C          -13.7240     6.7731     5.6405 C       6      r6     0.0569
   1672 C          -13.2451     7.0971     4.1640 C       0      r0    -0.0067
   1673 C          -12.9182     4.6786     5.7363 C       6      r6     0.2682
   1674 C          -12.9146     5.8717     6.4471 C       6      r6    -0.0561
   1675 C          -12.1321     7.9995     4.4065 C       0      r0     0.0223
   1676 C          -11.0616     7.2203     4.8347 C       0      r0     0.0007
   1677 C          -10.4262     4.6312     4.8204 C       6      r6     0.0026
   1678 C          -10.0549     6.2040     5.1059 C       0      r0    -0.0168
   1679 H           -9.8843     5.2544     2.9237 H       0      r0     0.0304
   1680 C           -9.1459     6.9315     6.0504 C       6      r6     0.0144
   1681 C           -8.8490     8.0159     5.0167 C       6      r6    -0.0455
   1682 H           -8.5856     6.0159     6.6555 H       0      r0     0.0135
   1683 H           -7.5584     4.3274     6.3807 H       0      r0     0.0179
   1684 C           -8.0879     7.8939     3.7952 C       6      r6    -0.0039
   1685 C           -7.4702     6.6041     3.3047 C       6      r6    -0.0020
   1686 C           -6.7470     5.5598     3.9926 C       7      r7     0.0009
   1687 H           -6.9446     9.2819     5.8236 H       0      r0     0.0411
   1688 H           -6.7082     5.6728     5.1331 H       0      r0     0.0392
   1689 H           -4.9949     6.2466     2.6876 H       0      r0     0.0587
   1690 C           -4.5730     8.9618     3.3832 C       6      r6     0.0069
   1691 C           -4.1700     8.9026     4.8602 C       6      r6     0.0555
   1692 O           -3.9351     6.2321     4.7185 O       5      r5    -0.4404
   1693 C           -3.0206     4.6736     4.6213 C       6      r6     0.0972
   1694 C           -2.7333     8.6464     5.0908 C       0      r0    -0.0749
   1695 C           -2.6758     7.2563     5.0358 C       5      r5     0.2004
   1696 C           -1.7156     5.1508     4.8472 C       6      r6     0.1968
   1697 C           -1.6605     6.3354     5.0751 C       5      r5    -0.0593
   1698 C           -0.4469     8.9915     2.7739 C       0      r0     0.0304
   1699 H            1.7581     5.2933     3.4634 H       0      r0     0.0589
   1700 C            2.4345     5.8587     2.8068 C       0      r0    -0.0156
   1701 C            3.1899     6.9826     3.2143 C       0      r0     0.0025
   1702 C            4.3166     7.9410     3.4446 C       0      r0     0.0083
   1703 C            4.1207     8.5734     4.8019 C       0      r0    -0.0033
   1704 C            5.1758     8.2460     5.7403 C       5      r5    -0.0049
   1705 H            6.3300     6.0571     5.4496 H       0      r0     0.0211
   1706 C            6.2354     5.4260     6.5254 C       0      r0    -0.0335
   1707 C            6.4451     8.5645     5.6160 C       5      r5    -0.0036
   1708 C            7.4201     8.5036     3.1616 C       7      r7    -0.0057
   1709 H            7.7271     7.5663     6.0472 H       0      r0     0.0187
   1710 C            8.5961     6.5727     2.7147 C       7      r7    -0.0090
   1711 C            8.7194     7.9632     3.2082 C       7      r7    -0.0081
   1712 C            9.3174     5.2218     5.7085 C       0      r0    -0.0083
   1713 C            9.9046     5.9593     3.1954 C       6      r6    -0.0045
   1714 C            9.9056     8.7042     3.9197 C       0      r0    -0.0154
   1715 C           10.1084     8.9608     5.4323 C       0      r0    -0.0342
   1716 C           10.0525     5.7160     4.6607 C       6      r6    -0.0063
   1717 H           10.2095     7.8636     5.5860 H       0      r0     0.0205
   1718 C           10.7155     4.9455     2.5678 C       6      r6    -0.0141
   1719 C           11.6214     9.0855     5.6226 C       0      r0    -0.0139
   1720 C           11.6030     5.7152     4.8145 C       6      r6    -0.0200
   1721 H           12.0977     6.2711     5.6656 H       0      r0     0.0271
   1722 C           12.0197     5.1497     2.3263 C       6      r6     0.0018
   1723 C           12.2431     6.1254     3.3807 C       6      r6    -0.0020
   1724 H           13.4049     7.7883     5.5658 H       0      r0     0.0303
   1725 C           13.4128     6.7086     3.1712 C       0      r0    -0.0031
   1726 C           14.0329     7.0771     6.1418 C       6      r6     0.0170
   1727 C          -14.3686   -13.6147     3.5144 C       0      r0     0.0257
   1728 C          -13.3718    12.6775     3.2532 C       0      r0     0.0087
   1729 C          -13.1587    10.1007     5.7384 C       5      r5     0.2810
   1730 C          -13.1149    11.4626     4.0522 C       5      r5    -0.0198
   1731 C          -13.2948    11.6112     5.4947 C       5      r5     0.0087
   1732 C          -12.4804     9.5532     4.8151 C       5      r5    -0.0401
   1733 C          -11.9977    10.5663     4.0263 C       5      r5     0.0205
   1734 H          -10.8312    12.7813     5.1629 H       0      r0     0.0500
   1735 C          -10.8338    10.2042     3.1983 C       0      r0     0.0080
   1736 C          -10.2745    13.3431     4.4360 C       0      r0    -0.0528
   1737 O          -10.0757     9.9850     5.9918 O       6      r6    -0.5005
   1738 H           -9.7509    13.0070     3.4811 H       0      r0     0.0249
   1739 C           -9.5113     9.3087     4.8353 C       6      r6     0.2561
   1740 C           -9.2459    10.1075     3.6364 C       5      r5    -0.0787
   1741 H           -9.1948    11.0262     4.1171 H       0      r0     0.0593
   1742 C           -8.3003     9.0226     2.8942 C       6      r6     0.0002
   1743 C           -6.2158    10.0949     6.2175 C       0      r0    -0.0078
   1744 H           -5.6780    12.0514     2.2519 H       0      r0     0.0195
   1745 C           -5.8810    12.8592     2.9152 C       6      r6    -0.0251
   1746 H           -5.4134    13.0672     6.0545 H       0      r0     0.0248
   1747 C           -4.8762    10.1029     5.3828 C       6      r6    -0.0006
   1748 C           -4.6121    12.5742     3.6137 C       6      r6    -0.0066
   1749 C           -4.0107    10.2132     3.0473 C       6      r6    -0.0098
   1750 C           -3.9381    11.1194     5.1838 C       6      r6    -0.0203
   1751 C           -3.9046    13.6052     4.4759 C       6      r6     0.0030
   1752 C           -3.8812    11.3234     3.9129 C       6      r6    -0.0025
   1753 H           -4.1869    11.9645     5.8636 H       0      r0     0.0233
   1754 H           -1.9918     9.3146     5.3506 H       0      r0     0.0322
   1755 H           -1.7710    10.6089     3.4234 H       0      r0     0.0242
   1756 H           -0.8141    12.5606     3.8481 H       0      r0     0.0238
   1757 C           -1.0911     9.7773     3.2000 C       0      r0    -0.0212
   1758 C           -0.5467    12.3283     2.8056 C       0      r0    -0.0129
   1759 C            0.6083    12.0662     2.7834 C       0      r0    -0.0096
   1760 H            1.8168    13.0365     6.4223 H       0      r0     0.0348
   1761 C            1.8773    11.6959     2.3750 C       3      r3     0.1210
   1762 O            2.7996    10.6777     3.1929 O       3      r3    -0.4489
   1763 H            3.3680     9.1588     5.1190 H       0      r0     0.0622
   1764 C            4.4328    13.3007     3.0253 C       5      r5     0.0170
   1765 C            5.1374    13.6704     4.2254 C       7      r7     0.0372
   1766 C            5.3776    12.3696     2.3547 C       5      r5     0.0238
   1767 C            5.2477    13.2839     6.3749 C       5      r5     0.2413
   1768 C            5.4479    12.6184     5.1085 C       5      r5    -0.0182
   1769 C            6.2620    11.4853     5.2848 C       5      r5    -0.0123
   1770 C            6.4867    11.6921     2.9605 C       5      r5     0.0346
   1771 C            6.7086    10.6527     4.1630 C       7      r7     0.0140
   1772 C            7.0726     9.2501     4.4066 C       0      r0    -0.0091
   1773 H            9.1387     9.0261     5.9531 H       0      r0     0.0126
   1774 H            9.5009    11.0656     5.9597 H       0      r0     0.0282
   1775 C           10.1998     9.5800     2.9878 C       0      r0     0.0186
   1776 C           10.3702    10.7947     2.6812 C       0      r0    -0.0734
   1777 C           10.4968    11.9871     2.3316 C       6      r6     0.2314
   1778 C           11.3793    12.0515     5.8812 C       6      r6    -0.0331
   1779 C           11.4034    12.5074     4.4289 C       0      r0     0.0670
   1780 C           11.3832    12.8662     3.3240 C       6      r6    -0.0338
   1781 H           12.1654     9.6161     4.8022 H       0      r0     0.0225
   1782 O           13.5420    13.4617     6.2236 O       5      r5    -0.4858
   1783 H          -14.2428   -10.0241     7.1360 H       0      r0     0.0173
   1784 C          -13.8893    -9.4633    10.4014 C       5      r5    -0.0365
   1785 C          -13.7305   -13.1100     7.9022 C       0      r0    -0.0461
   1786 H          -12.8651    -9.6828     9.9342 H       0      r0     0.0221
   1787 H          -13.0706   -12.2555     8.3222 H       0      r0     0.0165
   1788 H          -10.1619   -12.7106     7.4329 H       0      r0     0.0155
   1789 C           -9.3312   -12.7888     6.5404 C       6      r6    -0.0189
   1790 C           -9.2402   -12.6103     9.9717 C       0      r0    -0.0104
   1791 C           -8.5297   -12.0803     8.7978 C       6      r6    -0.0056
   1792 C           -8.2980   -12.5225     7.4543 C       6      r6     0.0009
   1793 C           -8.1311   -10.8179    10.5250 C       0      r0    -0.0087
   1794 H           -7.8473    -8.8548     7.9931 H       0      r0     0.0194
   1795 C           -7.3794   -11.2229     9.4267 C       6      r6     0.0026
   1796 C           -7.0106   -12.2200     6.7952 C       6      r6    -0.0000
   1797 C           -6.0233   -11.3099     7.5715 C       6      r6    -0.0024
   1798 C           -6.0973   -10.6626     8.7953 C       6      r6    -0.0267
   1799 H           -4.8776   -13.4203    10.3450 H       0      r0     0.0208
   1800 H           -5.2733   -10.0331     9.2217 H       0      r0     0.0151
   1801 C           -2.4443   -13.4009    10.9036 C       0      r0    -0.0094
   1802 H           -1.7600    -9.4554     8.5518 H       0      r0     0.0193
   1803 C           -1.6985   -10.9950    10.2912 C       0      r0     0.0438
   1804 C           -1.5840   -12.4488    10.2573 C       0      r0    -0.0186
   1805 H           -1.5097   -12.7631     7.6567 H       0      r0     0.0208
   1806 C           -1.2010    -9.8423     9.4453 C       0      r0    -0.0725
   1807 C           -1.1286   -12.4254     6.8146 C       7      r7    -0.0191
   1808 H           -0.8898   -12.8128     9.3257 H       0      r0     0.0233
   1809 C           -0.0258    -9.3409     9.5443 C       5      r5     0.2334
   1810 O            0.9303    -9.9143    10.5929 O       5      r5    -0.4835
   1811 C            1.9199   -12.7131     8.5557 C       7      r7    -0.0037
   1812 C            2.4535   -11.6957     9.1180 C       7      r7     0.0163
   1813 C            2.5042   -12.2332    10.5995 C       5      r5     0.0398
   1814 H            3.1129   -10.8758     8.6695 H       0      r0     0.0208
   1815 C            3.3854    -9.3883    10.4095 C       0      r0    -0.0504
   1816 C            4.7878    -9.2472     9.6994 C       0      r0    -0.0189
   1817 H            4.6674   -13.1461     6.4177 H       0      r0    -0.0027
   1818 H            5.4406    -9.9520     6.3770 H       0      r0     0.0237
   1819 C            5.6972   -10.1867     9.4817 C       0      r0     0.0010
   1820 C            5.8311    -9.1818     6.8189 C       0      r0    -0.0237
   1821 C            6.7917   -10.8459     9.1211 C       0      r0    -0.0216
   1822 H            6.4935   -11.8015     9.6010 H       0      r0     0.0349
   1823 C            7.2144    -9.4350     7.2537 C       0      r0     0.0036
   1824 C            7.7448   -10.6338     8.0750 C       0      r0     0.0107
   1825 C            8.8890   -11.1287     7.6680 C       3      r3    -0.0057
   1826 H            8.9027   -12.2829     9.4348 H       0      r0     0.0522
   1827 H            9.3231    -9.4053    10.3008 H       0      r0     0.0164
   1828 C            9.5927   -12.6669    10.3821 C       5      r5    -0.0066
   1829 C           10.2545   -11.1160     7.4098 C       3      r3     0.2835
   1830 O           10.6666   -12.3610     7.6564 O       3      r3    -0.4492
   1831 C           10.9138   -13.4073    10.0966 C       6      r6     0.0526
   1832 H           11.5110    -9.5519     9.6519 H       0      r0     0.0248
   1833 C           12.4046   -13.2591    10.0808 C       6      r6    -0.0052
   1834 H           12.8956   -12.3259    10.3845 H       0      r0     0.0292
   1835 C           13.7125   -11.1972     8.8621 C       0      r0    -0.0189
   1836 C           13.5341   -11.7052     7.6326 C       0      r0     0.0238
   1837 C           13.6622   -10.3933     9.9790 C       5      r5    -0.0004
   1838 C           13.6901   -13.2853     7.6376 C       5      r5     0.2221
   1839 C           14.0808   -10.7219     6.7092 C       0      r0    -0.0256
   1840 H          -14.1763    -8.4289    10.7411 H       0      r0     0.0237
   1841 H          -13.3821    -7.6814     8.0398 H       0      r0     0.0143
   1842 C          -12.3553    -7.8600     7.8755 C       7      r7    -0.0258
   1843 C          -11.5463    -7.0558    10.4463 C       6      r6    -0.0066
   1844 C          -11.4718    -7.2962     8.7983 C       6      r6    -0.0029
   1845 C          -10.2254    -6.4812    10.8880 C       6      r6    -0.0001
   1846 C          -10.0095    -7.3764     8.3603 C       6      r6    -0.0036
   1847 C           -9.7273    -8.2102     7.2006 C       7      r7    -0.0048
   1848 C           -9.5199    -5.6312     9.9150 C       6      r6    -0.0088
   1849 C           -9.0526    -6.2684     8.7743 C       6      r6    -0.0005
   1850 C           -8.3935    -4.8235    10.1286 C       6      r6     0.0094
   1851 C           -8.4342    -8.9710     7.0360 C       0      r0    -0.0116
   1852 C           -7.6696    -5.9257     8.3596 C       5      r5    -0.0141
   1853 H           -7.3317    -6.4936     7.2781 H       0      r0     0.0199
   1854 C           -7.2833    -4.9443     9.3625 C       5      r5    -0.0116
   1855 H           -6.4413    -4.2872     9.3497 H       0      r0     0.0547
   1856 H           -6.0040    -6.9750    10.6784 H       0      r0     0.0126
   1857 C           -4.9023    -6.5317    10.5462 C       7      r7    -0.0220
   1858 C           -4.2431    -6.5782     9.1772 C       7      r7     0.0014
   1859 C           -4.1268    -7.2040     7.9604 C       0      r0    -0.0085
   1860 C           -3.5813    -5.1640     8.8632 C       7      r7    -0.0044
   1861 C           -3.3567    -6.8664     6.8544 C       0      r0    -0.0098
   1862 H           -2.8171    -5.9178     6.6331 H       0      r0     0.0439
   1863 H           -2.3363    -8.5194    10.6175 H       0      r0     0.0198
   1864 C           -2.1468    -4.9947     9.0443 C       7      r7    -0.0067
   1865 C           -1.8085    -5.3730    10.6070 C       7      r7    -0.0024
   1866 C           -0.9796    -5.2260     8.3306 C       0      r0    -0.0049
   1867 H           -0.2708    -7.8929     8.0711 H       0      r0     0.0172
   1868 C           -0.0520    -5.4060     7.5862 C       0      r0    -0.0220
   1869 C            0.6039    -8.4754     8.5270 C       5      r5    -0.0540
   1870 C            0.9528    -9.1769     7.0455 C       0      r0     0.0024
   1871 H            0.9432    -5.9403     7.4812 H       0      r0     0.0192
   1872 H            0.8112    -5.3355     9.8417 H       0      r0     0.0166
   1873 C            1.9531    -8.4886     8.7274 C       5      r5    -0.0416
   1874 C            2.2073    -9.0376    10.0573 C       5      r5     0.1930
   1875 H            2.8102    -8.0208     8.1860 H       0      r0     0.0187
   1876 H            2.3110    -4.3287     9.7177 H       0      r0     0.0188
   1877 H            5.1842    -8.2714     9.6390 H       0      r0     0.0203
   1878 C            6.8671    -6.3386    10.9558 C       7      r7     0.0014
   1879 C            7.9245    -6.1064    10.1616 C       7      r7    -0.0251
   1880 C            8.0200    -8.2104     7.2798 C       0      r0    -0.0092
   1881 H            8.2526    -5.0832    10.1463 H       0      r0     0.0225
   1882 C            8.6866    -7.4495     9.7322 C       7      r7    -0.0010
   1883 C            8.4264    -8.5730    10.5758 C       7      r7    -0.0217
   1884 C            8.9424    -7.5597     8.3039 C       0      r0    -0.0060
   1885 C            9.9068    -4.8141     8.8244 C       0      r0    -0.0007
   1886 C            9.6293    -6.2624     7.9252 C       5      r5     0.0022
   1887 C           10.9214    -6.7249     7.3596 C       5      r5    -0.0019
   1888 H           12.1037    -8.7332     7.7309 H       0      r0     0.0184
   1889 C           11.4626    -7.5071    10.5899 C       0      r0     0.0032
   1890 C           11.7394    -8.4627     9.5123 C       0      r0    -0.0233
   1891 C           11.8495    -7.6244     8.3056 C       0      r0    -0.0107
   1892 C           11.9288    -5.9990    10.5844 C       5      r5    -0.0045
   1893 C           12.9704    -5.7097     9.6079 C       5      r5    -0.0211
   1894 H           14.2413    -6.9614     6.8901 H       0      r0     0.0371
   1895 H           13.8310    -6.3286     9.5874 H       0      r0     0.0174
   1896 C          -13.2103    -2.7247    10.1523 C       5      r5    -0.0136
   1897 C          -13.1334    -2.9428     8.6103 C       5      r5    -0.0004
   1898 C          -12.3399    -1.5888    10.3862 C       0      r0     0.0250
   1899 C          -12.0271    -2.7672     7.7277 C       0      r0     0.0476
   1900 C          -11.6230    -1.1416     9.5774 C       0      r0    -0.0747
   1901 O          -11.0754     0.0035     7.2679 O       6      r6    -0.5188
   1902 C          -11.0200    -2.9945     6.8647 C       0      r0    -0.0111
   1903 C          -10.7802    -0.5393     8.6988 C       6      r6     0.2587
   1904 H          -10.4188    -2.6364    10.3961 H       0      r0     0.0239
   1905 C           -9.4431    -0.6919     9.1919 C       6      r6    -0.1216
   1906 C           -9.2963    -2.5791    10.5401 C       0      r0    -0.0763
   1907 C           -8.6801    -1.5851     9.9632 C       5      r5     0.2621
   1908 H           -8.5685    -2.8257     7.0493 H       0      r0     0.0326
   1909 C           -7.2722    -0.4478     8.8330 C       5      r5     0.1993
   1910 O           -7.2006    -1.6107     9.7795 O       5      r5    -0.5114
   1911 H           -6.2421     0.1018     8.6034 H       0      r0    -0.0020
   1912 H           -4.3084    -0.6547     7.5868 H       0      r0     0.0234
   1913 C           -4.2107    -3.0742     7.5782 C       0      r0    -0.0566
   1914 C           -4.0981    -4.1119     8.2582 C       0      r0     0.0410
   1915 H           -3.5193    -2.3393     7.9091 H       0      r0     0.0303
   1916 H           -1.1352    -3.5522     9.7516 H       0      r0     0.0236
   1917 C           -0.5297    -2.6422    10.1075 C       7      r7    -0.0182
   1918 C            0.7198    -2.5730     9.4797 C       7      r7    -0.0077
   1919 C            0.9767    -0.1741    10.1652 C       7      r7    -0.0016
   1920 C            1.1337    -3.1687     6.9230 C       0      r0    -0.0023
   1921 C            1.9205    -2.2124     9.0543 C       7      r7    -0.0036
   1922 C            2.0108    -0.7724     9.3900 C       7      r7     0.0007
   1923 C            2.4856    -2.7545     7.7664 C       0      r0    -0.0057
   1924 C            2.8620    -4.0098    10.5746 C       0      r0    -0.0159
   1925 C            3.4444    -2.2948     7.2503 C       0      r0    -0.0042
   1926 C            4.0227    -3.4306    10.6132 C       0      r0     0.0002
   1927 C            5.2016    -2.8279    10.7183 C       0      r0    -0.0199
   1928 H            5.2466    -1.9967     9.8223 H       0      r0     0.0164
   1929 H            6.5912    -3.4476     5.9234 H       0      r0     0.0164
   1930 C            8.5202    -1.5498     7.4649 C       4      r4     0.0023
   1931 C            8.5229    -2.8208     7.7218 C       4      r4     0.0042
   1932 C            9.0587    -0.3554     8.2072 C       0      r0     0.0024
   1933 C            9.1615    -3.7978     8.2025 C       0      r0     0.0039
   1934 C            9.2082    -0.1130     9.4093 C       0      r0    -0.0057
   1935 C           11.0249    -4.2737     9.6337 C       5      r5     0.0055
   1936 C           12.5784    -4.4644     9.2039 C       5      r5     0.0166
   1937 C           13.5419    -3.4198     9.2390 C       5      r5    -0.0001
   1938 C           13.7214    -3.0561     6.8471 C       0      r0     0.0081
   1939 C           14.3482    -3.0721    10.3866 C       5      r5     0.0011
   1940 C          -14.4251    -3.3252     8.0931 C       5      r5     0.0238
   1941 C          -14.1880     4.3401     9.8916 C       5      r5    -0.0094
   1942 C          -14.2576     1.9201     9.4841 C       5      r5     0.0007
   1943 C          -13.8065     3.3355     8.8984 C       5      r5     0.0215
   1944 H          -12.5820     0.1257    10.6496 H       0      r0     0.0306
   1945 H          -11.4627     2.0761    10.4847 H       0      r0     0.0203
   1946 C          -10.1727     1.0545     6.8170 C       6      r6     0.2757
   1947 C           -8.9939     1.2702     7.6137 C       6      r6    -0.0516
   1948 C           -8.9361     1.8995    10.5808 C       5      r5     0.0059
   1949 C           -8.4877     2.0539     9.5026 C       0      r0    -0.0052
   1950 C           -8.5882     0.0992     8.3136 C       6      r6     0.0076
   1951 C           -8.4023     2.5754     7.3355 C       6      r6     0.0036
   1952 C           -7.9520     2.8478     8.5713 C       0      r0    -0.0099
   1953 C           -7.4625     4.3069     8.7807 C       5      r5    -0.0103
   1954 H           -6.3914     0.6241    10.8948 H       0      r0     0.0466
   1955 H           -5.1272     1.3670     7.4951 H       0      r0     0.0154
   1956 H           -5.0604     3.7954     7.2643 H       0      r0     0.0245
   1957 C           -4.7886     0.3610     6.9906 C       0      r0    -0.0316
   1958 C           -4.2832     4.3352     7.9034 C       7      r7    -0.0162
   1959 H           -3.7080     2.1082     9.9671 H       0      r0     0.0148
   1960 C           -2.5762     1.8035     9.8127 C       6      r6    -0.0203
   1961 C           -2.4347     1.0643     7.5227 C       0      r0    -0.0070
   1962 C           -1.9712     1.0081     8.6440 C       6      r6    -0.0025
   1963 C           -1.6581     2.4169    10.7355 C       6      r6     0.0025
   1964 C           -0.3037     1.2640     8.4345 C       6      r6    -0.0005
   1965 C           -0.1978     2.0046    10.8326 C       6      r6    -0.0007
   1966 C            0.1370     0.8357     7.1941 C       0      r0     0.0034
   1967 C            0.3703     1.0849     9.6259 C       6      r6    -0.0005
   1968 H            0.9372     3.1867     8.8155 H       0      r0     0.0339
   1969 C            1.2675     3.5989     9.7605 C       5      r5    -0.0180
   1970 C            2.6336     1.1203     7.7122 C       0      r0     0.0036
   1971 C            2.6657     3.4052     9.9668 C       5      r5     0.0099
   1972 C            2.9063     0.1162     8.7161 C       0      r0    -0.0162
   1973 C            3.1336     1.9554     6.5790 C       6      r6     0.0077
   1974 C            3.9508     3.7223     7.9221 C       7      r7     0.0002
   1975 H            3.5696     0.1411     9.6479 H       0      r0     0.0179
   1976 C            3.9876     3.1805     9.3575 C       7      r7    -0.0027
   1977 C            4.3473     2.7248     6.8886 C       6      r6     0.0028
   1978 H            5.4531     1.5381     8.4104 H       0      r0     0.0202
   1979 C            5.2874     3.2845    10.0229 C       0      r0    -0.0072
   1980 C            5.5773     1.9197     7.4444 C       0      r0    -0.0209
   1981 C            6.6029     3.3137    10.4969 C       0      r0    -0.0017
   1982 C            6.9170     1.9437     7.2234 C       0      r0    -0.0006
   1983 C            8.2802     2.0212     7.2231 C       0      r0    -0.0002
   1984 C            9.0945     0.9091     7.0844 C       0      r0     0.0074
   1985 C            9.2746     3.1775     6.7697 C       0      r0    -0.0159
   1986 C            9.7830     0.7753    10.0259 C       0      r0     0.0041
   1987 C           10.5576     3.7961     7.7468 C       0      r0     0.0054
   1988 C           10.8424     1.5967     9.4918 C       0      r0    -0.0012
   1989 C           10.8746     3.1683     8.9494 C       0      r0     0.0011
   1990 C           11.2502     4.1255     6.6464 C       0      r0     0.0008
   1991 C           11.3581     3.7547    10.2038 C       7      r7    -0.0015
   1992 C           11.8637     0.9677     8.6550 C       0      r0    -0.0004
   1993 C           13.0921     0.5764     8.1180 C       0      r0     0.0313
   1994 C           14.1554     1.8759    10.7375 C       5      r5    -0.0225
   1995 C           14.4271     0.5760     8.7033 C       0      r0     0.0246
   1996 C          -14.1700     6.1006     8.3729 C       6      r6     0.0117
   1997 C          -13.0649     8.2690    10.0320 C       0      r0    -0.0101
   1998 C          -12.9882     5.7770     7.9011 C       6      r6     0.0056
   1999 H          -12.4554     4.8642     8.1049 H       0      r0     0.0156
   2000 C          -12.3616     8.2938     8.6973 C       6      r6     0.0543
   2001 C          -11.8232     6.9991     8.4673 C       6      r6    -0.0103
   2002 H           -9.9287     5.0358     7.3541 H       0      r0     0.0212
   2003 C          -10.4860     6.6975     8.0737 C       6      r6     0.0036
   2004 H          -10.5471     4.5522     9.1108 H       0      r0     0.0207
   2005 C          -10.3389     9.0483     7.3637 C       6      r6     0.2177
   2006 C           -9.9773     5.1391     8.4709 C       0      r0    -0.0445
   2007 C           -9.9613     7.7851     7.2612 C       6      r6    -0.0395
   2008 C           -9.6623     8.7808     9.7314 C       0      r0     0.0048
   2009 C           -8.9478     7.5551    10.2152 C       0      r0    -0.0123
   2010 C           -8.5956     5.2493     9.0306 C       5      r5    -0.0032
   2011 C           -8.2315     6.5575     9.3188 C       5      r5     0.0273
   2012 C           -6.7586     6.4467     9.4184 C       6      r6    -0.0828
   2013 C           -6.3229     4.9855     9.2624 C       6      r6     0.0125
   2014 C           -5.9769     7.6317     9.8891 C       6      r6     0.3674
   2015 O           -5.9055     8.8447     9.9589 O       0      r0    -0.5207
   2016 C           -4.9521     4.9129     9.1834 C       6      r6    -0.0081
   2017 C           -4.0574     5.9972     9.8316 C       6      r6    -0.0015
   2018 C           -3.0948     5.0404     7.7127 C       7      r7     0.0314
   2019 C           -2.8499     6.2992     9.4995 C       7      r7     0.0024
   2020 C           -1.9325     5.8082     7.5955 C       7      r7    -0.0253
   2021 C           -1.8310     6.4869     8.9206 C       7      r7     0.0017
   2022 H           -1.1494     5.4085     6.9336 H       0      r0     0.0549
   2023 C           -0.3615     6.7771     9.5717 C       0      r0    -0.0342
   2024 H           -0.1183     5.8376     8.7868 H       0      r0     0.0246
   2025 H            0.0732     7.7555     9.1889 H       0      r0     0.0181
   2026 H            0.3914     8.5337     7.6848 H       0      r0     0.0176
   2027 C            0.6223     5.8907    10.3775 C       7      r7    -0.0043
   2028 C            1.5798     5.1610     9.5802 C       7      r7    -0.0014
   2029 C            2.7294     5.8725     9.0925 C       7      r7     0.0002
   2030 C            2.8032     9.0034    10.3095 C       6      r6    -0.0610
   2031 H            3.8502     5.1407     6.7446 H       0      r0     0.0221
   2032 C            3.6405     8.1757     9.2816 C       6      r6     0.0106
   2033 C            3.3805     4.9971     8.0586 C       7      r7    -0.0096
   2034 C            3.9614     8.7444     7.9444 C       0      r0    -0.0172
   2035 C            3.8105     6.7662     9.5613 C       6      r6    -0.0089
   2036 C            4.9671     8.5520     7.0776 C       5      r5    -0.0005
   2037 H            5.4109     5.8024     7.1643 H       0      r0     0.0217
   2038 C            6.1585     8.1629     7.7571 C       5      r5     0.0022
   2039 C            6.4398     8.8318     8.9815 C       0      r0    -0.0145
   2040 H            7.5701     5.8986    11.1197 H       0      r0     0.0146
   2041 C            7.1107     8.0919     6.7220 C       5      r5    -0.0439
   2042 C            7.4422     5.0752     7.5397 C       0      r0     0.0000
   2043 C            7.5180     5.3287     8.8479 C       0      r0    -0.0032
   2044 H            7.9765     8.6259     7.1509 H       0      r0     0.0111
   2045 C            7.9945     5.2458    10.3147 C       0      r0    -0.0131
   2046 C            8.7690     4.5907     6.6203 C       0      r0     0.0047
   2047 C            9.4356     6.0742    10.6704 C       0      r0    -0.0352
   2048 C           10.5937     6.0857     9.6195 C       6      r6     0.0093
   2049 C           10.7068     8.1383    10.3692 C       0      r0    -0.0085
   2050 C           10.7574     7.4686     9.2831 C       6      r6    -0.0065
   2051 C           11.6591     5.2091     9.8463 C       6      r6    -0.0006
   2052 C           11.5917     7.7928     8.0714 C       6      r6    -0.0010
   2053 C           11.9814     8.9399     7.0226 C       0      r0    -0.0259
   2054 C           12.4295     6.5978     8.1410 C       6      r6    -0.0001
   2055 C           12.8000     5.8312     9.3764 C       6      r6     0.0048
   2056 C           13.7700     6.4658     7.4413 C       6      r6     0.0305
   2057 C           14.1154     5.5547     9.4601 C       5      r5    -0.0003
   2058 C          -14.2592     8.9583     9.8500 C       0      r0    -0.0267
   2059 C          -13.8644    11.6918     9.0060 C       0      r0    -0.0258
   2060 O          -13.7206     9.4965     6.9100 O       0      r0    -0.4879
   2061 H          -13.5391    10.9747     9.8747 H       0      r0     0.0131
   2062 C          -12.9133    13.3127     7.3454 C       0      r0     0.0299
   2063 C          -12.9385    11.2197     8.0464 C       0      r0     0.0669
   2064 C          -12.7230    12.1490     6.6962 C       0      r0     0.0241
   2065 C          -11.7396    10.5043     8.5568 C       0      r0     0.0206
   2066 H          -11.5694    13.1949     9.6438 H       0      r0     0.0193
   2067 C          -11.3723     9.1479     8.1961 C       6      r6    -0.0321
   2068 C          -10.9394    11.0265     9.5907 C       7      r7    -0.0052
   2069 C          -10.7213    12.6539     9.7667 C       7      r7    -0.0398
   2070 H           -9.9328    13.0496     9.1732 H       0      r0     0.0267
   2071 C           -9.9665    10.1937     9.9897 C       7      r7    -0.0040
   2072 C           -8.6695    10.7059    10.4077 C       7      r7     0.0177
   2073 C           -7.6935    11.2685     9.4250 C       0      r0     0.0429
   2074 C           -6.8334    11.6030     8.3978 C       0      r0     0.0087
   2075 C           -6.5855    10.7419     7.2850 C       0      r0     0.0455
   2076 C           -5.7998    12.6480     8.8260 C       0      r0     0.0117
   2077 C           -5.5852    13.1490    10.1914 C       0      r0    -0.0181
   2078 C           -4.8052    12.8800     8.1295 C       0      r0    -0.0041
   2079 H           -3.9295     9.7624    10.5435 H       0      r0     0.0740
   2080 C           -3.4217    13.1042     7.4229 C       0      r0    -0.0157
   2081 C           -3.1512    11.8188    10.4689 C       5      r5    -0.0183
   2082 H           -2.5821    11.7070     9.6292 H       0      r0     0.0223
   2083 C           -2.3316    12.3071     7.4827 C       0      r0    -0.0113
   2084 H           -1.7257     9.4012     7.9197 H       0      r0     0.0214
   2085 C           -1.1343    11.4554     7.6106 C       5      r5    -0.0062
   2086 C           -0.8839    10.1222     7.8275 C       5      r5    -0.0211
   2087 C            0.2816    11.7846     7.4152 C       6      r6     0.0092
   2088 C            0.3689     9.6313     7.6339 C       5      r5    -0.0170
   2089 C            0.7876    12.8938     6.8375 C       6      r6    -0.0201
   2090 C            1.3072    10.7755     7.8446 C       6      r6     0.0029
   2091 C            1.3731    13.5070     8.1722 C       6      r6     0.0094
   2092 C            1.7645    12.5128     9.1893 C       6      r6    -0.0500
   2093 C            1.8216    12.6043    10.5272 C       5      r5     0.2498
   2094 C            2.4004    11.1019     8.9458 C       6      r6    -0.0299
   2095 C            2.5345    10.2842    10.2507 C       5      r5     0.2036
   2096 H            2.9522     9.1880     7.8088 H       0      r0     0.0198
   2097 H            3.3463    11.3945     8.1630 H       0      r0     0.0764
   2098 H            5.5583    10.4236     7.1077 H       0      r0     0.0228
   2099 O            5.3552    12.4372     7.5635 O       5      r5    -0.5014
   2100 C            6.1767    11.3988     6.8344 C       5      r5     0.1795
   2101 C            6.5128     9.7591     9.9490 C       0      r0     0.0120
   2102 C            6.8029    10.6100    11.0101 C       7      r7     0.0010
   2103 H            7.2041    11.4706     7.2686 H       0      r0     0.0213
   2104 C            8.4963    13.4763    10.8415 C       5      r5     0.0037
   2105 C            9.4702    12.3246    10.7232 C       5      r5     0.0051
   2106 H            9.5061    10.4031     8.4402 H       0      r0     0.0152
   2107 C           10.2853    11.3654     6.6708 C       6      r6     0.0067
   2108 C           10.2161    11.1965     8.0150 C       6      r6    -0.0227
   2109 C           10.5049    12.6693     9.9457 C       6      r6    -0.0120
   2110 C           11.0275    12.1757     8.8212 C       6      r6     0.0407
   2111 C           12.1736    12.5284     8.1055 C       6      r6    -0.0313
   2112 C           12.3395    12.6563     6.7281 C       6      r6     0.2578
   2113 H           12.9925     9.4323     7.3148 H       0      r0     0.0724
   2114 C           13.1238    13.4587     8.7689 C       6      r6    -0.0288
   2115 C           13.2905    12.0209    10.5941 C       5      r5    -0.0233
   2116 C           13.9633    12.3864     9.4445 C       5      r5     0.0194
   2117 H          -13.9099     9.4664     8.7462 H       0      r0     0.0965
   2118 C          -13.5188   -10.2337    11.6445 C       5      r5    -0.0261
   2119 C          -12.6919   -11.2849    11.6902 C       0      r0     0.0068
   2120 C          -12.4063   -13.6172    12.7363 C       0      r0     0.0121
   2121 C          -12.3678   -12.5027    12.0901 C       0      r0     0.0050
   2122 H          -12.2579   -10.6452    13.5776 H       0      r0     0.0433
   2123 C          -11.4581    -9.9597    13.9081 C       0      r0    -0.0202
   2124 H          -10.1322   -12.8592    14.3558 H       0      r0     0.0226
   2125 C          -10.1961   -10.4280    13.4883 C       0      r0     0.0007
   2126 C           -9.7673   -13.1711    13.4784 C       6      r6    -0.0277
   2127 C           -9.8611   -10.9017    12.1588 C       0      r0    -0.0043
   2128 C           -9.4713   -12.3058    12.3762 C       6      r6    -0.0011
   2129 C           -9.5730   -13.1457    11.2491 C       6      r6    -0.0021
   2130 C           -9.1237    -9.5482    14.2321 C       0      r0    -0.0244
   2131 C           -8.8752   -10.1433    11.4559 C       0      r0    -0.0068
   2132 H           -8.3987   -10.0450    13.5158 H       0      r0     0.0195
   2133 H           -7.3751   -13.1842    14.7514 H       0      r0     0.0160
   2134 H           -6.7466   -10.6022    12.3327 H       0      r0     0.0134
   2135 C           -5.6623   -10.6819    13.0787 C       0      r0    -0.0176
   2136 C           -5.4118    -9.3680    12.6495 C       0      r0     0.0055
   2137 C           -4.6356   -11.5499    13.9101 C       0      r0    -0.0198
   2138 C           -4.0024   -11.1945    14.9535 C       0      r0     0.0038
   2139 H           -4.2534   -12.0596    13.0200 H       0      r0     0.0169
   2140 H           -2.1567   -11.2804    12.2277 H       0      r0     0.0252
   2141 C           -2.1807   -10.4431    11.6083 C       0      r0    -0.0070
   2142 C            0.3534    -9.7886    13.9692 C       6      r6    -0.0086
   2143 H            0.5796   -13.4732    11.3315 H       0      r0     0.0269
   2144 H            1.2069    -9.8731    13.4244 H       0      r0     0.0395
   2145 C            1.6764   -13.4832    11.4108 C       5      r5    -0.0299
   2146 C            2.2041   -13.2804    12.8358 C       5      r5     0.0234
   2147 C            3.5120   -12.5426    12.9254 C       6      r6    -0.0046
   2148 C            3.1950   -11.6170    11.7887 C       6      r6     0.0091
   2149 C            3.4312   -10.2080    11.6292 C       6      r6     0.0420
   2150 C            4.1915   -12.1734    14.0961 C       6      r6     0.0127
   2151 C            4.2693   -10.6726    14.1451 C       6      r6    -0.0067
   2152 C            4.2618    -9.8138    12.8226 C       6      r6    -0.0144
   2153 C            5.6659    -9.4186    12.9366 C       5      r5    -0.0033
   2154 H            5.7371   -11.7962    13.0585 H       0      r0     0.0409
   2155 C            6.5237   -10.8431    13.2697 C       5      r5    -0.0324
   2156 H            6.6230   -10.9727    14.3066 H       0      r0     0.0343
   2157 C            7.6330   -10.3215    12.2128 C       5      r5     0.0007
   2158 C            8.9765   -10.8238    11.8652 C       0      r0    -0.0082
   2159 H            9.1632    -9.9123    14.5554 H       0      r0     0.0261
   2160 C           10.0348   -11.6487    11.4805 C       0      r0    -0.0060
   2161 C           11.5189   -11.9228    13.1451 C       6      r6    -0.0336
   2162 C           11.4564   -11.4027    11.7592 C       6      r6     0.0255
   2163 H           12.0275    -9.1349    13.5791 H       0      r0     0.0324
   2164 C           12.2880   -12.1738    14.1148 C       6      r6     0.2072
   2165 C           12.9303   -10.6772    11.2905 C       6      r6    -0.0407
   2166 O           13.7064   -11.7343    13.5521 O       6      r6    -0.4564
   2167 C           14.0242   -10.8816    12.1173 C       6      r6     0.1877
   2168 C          -13.5255    -7.4774    13.8076 C       7      r7    -0.0160
   2169 C          -13.4203    -4.6228    12.5947 C       0      r0    -0.0001
   2170 C          -13.2821    -8.6012    14.4128 C       7      r7     0.0066
   2171 C          -12.6595    -6.4354    11.0573 C       5      r5    -0.0117
   2172 H          -12.8387    -6.8005    12.9917 H       0      r0     0.0225
   2173 C          -12.1574    -5.3990    11.8903 C       5      r5    -0.0097
   2174 C          -11.7385    -8.7711    14.4738 C       0      r0     0.0081
   2175 H          -11.7465    -5.0634    14.4985 H       0      r0     0.0176
   2176 C          -10.9034    -7.6868    14.9736 C       0      r0    -0.0246
   2177 C          -10.7493    -5.3547    11.9707 C       6      r6    -0.0084
   2178 H           -9.9310    -7.2409    14.6576 H       0      r0     0.0247
   2179 H           -9.1996    -8.5312    13.6714 H       0      r0     0.0203
   2180 C           -8.9552    -8.5953    11.0766 C       0      r0    -0.0047
   2181 C           -8.8523    -7.4412    10.8945 C       0      r0    -0.0209
   2182 H           -7.8534    -7.1766    11.2987 H       0      r0     0.0180
   2183 H           -5.8202    -6.2297    12.6897 H       0      r0     0.0242
   2184 C           -4.8487    -6.8006    13.0059 C       6      r6     0.1687
   2185 C           -4.6158    -8.2100    12.7045 C       6      r6    -0.0468
   2186 O           -4.1616    -5.8080    14.1479 O       6      r6    -0.4701
   2187 C           -4.2707    -6.2357    11.6346 C       7      r7     0.0065
   2188 C           -3.0364    -8.3498    12.6601 C       6      r6     0.0201
   2189 C           -2.6916    -5.9433    11.4825 C       7      r7    -0.0006
   2190 C           -2.8045    -6.4198    14.3824 C       6      r6     0.2307
   2191 C           -2.4464    -9.0912    11.5677 C       0      r0    -0.0119
   2192 H           -2.2577    -6.4381    12.3184 H       0      r0     0.0251
   2193 C           -2.2112    -7.6420    13.7310 C       6      r6    -0.0607
   2194 C           -1.6440    -5.6560    14.7158 C       0      r0    -0.0682
   2195 C           -1.2789    -8.6108    14.3668 C       6      r6     0.0188
   2196 C           -0.4627    -5.5161    11.0959 C       0      r0    -0.0114
   2197 H           -0.5626    -5.8517    14.4219 H       0      r0     0.0233
   2198 C           -0.3366    -8.8495    13.5439 C       6      r6    -0.0275
   2199 H            0.0101    -8.6564    12.6000 H       0      r0     0.0564
   2200 C            0.7546    -5.5491    10.9635 C       0      r0    -0.0146
   2201 H            0.8970    -4.7614    12.9752 H       0      r0     0.0159
   2202 C            1.6496    -5.0583    12.2844 C       0      r0    -0.0133
   2203 C            2.9412    -5.6914    12.4344 C       0      r0     0.0016
   2204 C            4.0845    -5.8921    12.2650 C       0      r0    -0.0015
   2205 H            5.1426    -7.0740    14.5730 H       0      r0     0.0158
   2206 C            5.4629    -5.7672    12.2706 C       0      r0    -0.0036
   2207 C            5.9734    -4.5453    13.1312 C       0      r0     0.0072
   2208 C            5.9887    -6.5359    15.0156 C       5      r5     0.1418
   2209 C            6.1940    -7.2075    11.7049 C       7      r7    -0.0055
   2210 C            6.5621    -8.5064    12.1803 C       5      r5    -0.0061
   2211 C            6.5239    -5.1679    14.3408 C       0      r0    -0.0362
   2212 C            7.7626    -9.0160    11.7280 C       5      r5    -0.0039
   2213 H            8.4843    -5.3166    12.6830 H       0      r0     0.0240
   2214 C            8.5503    -7.7803    14.7732 C       7      r7     0.0030
   2215 C            9.2494    -6.5455    14.3969 C       0      r0    -0.0014
   2216 C            9.5393    -5.7457    13.1159 C       0      r0    -0.0338
   2217 H            9.7643    -6.2656    12.2593 H       0      r0     0.0208
   2218 C            9.5163    -9.0372    15.0540 C       7      r7    -0.0348
   2219 H           10.5243    -8.5990    14.6941 H       0      r0     0.0203
   2220 H           11.0494    -6.8633    12.5747 H       0      r0     0.0218
   2221 C           11.0468    -7.7655    11.9994 C       0      r0    -0.0255
   2222 C           11.1615    -4.7120    11.0029 C       5      r5    -0.0088
   2223 C           12.1171    -8.2843    12.9176 C       0      r0    -0.0182
   2224 C           12.4394    -7.6997    15.2296 C       7      r7    -0.0071
   2225 C           12.8304    -7.2835    13.7637 C       7      r7    -0.0007
   2226 H           13.9333    -5.5983    11.5157 H       0      r0     0.0218
   2227 C           14.1599    -6.6422    13.4794 C       7      r7     0.0067
   2228 C           14.2258    -5.4817    12.5093 C       0      r0    -0.0219
   2229 C          -14.0664    -3.4606    14.8004 C       5      r5     0.0005
   2230 H          -13.9184    -0.7189    13.9612 H       0      r0     0.0184
   2231 H          -13.7195    -0.6454    12.0737 H       0      r0     0.0188
   2232 C          -13.2580    -3.6439    13.4665 C       0      r0    -0.0255
   2233 C          -12.6897    -0.4968    11.5347 C       0      r0    -0.0470
   2234 H          -12.4916     0.5895    14.6136 H       0      r0     0.0235
   2235 H          -12.2287    -3.3959    13.3687 H       0      r0     0.0209
   2236 H          -12.3385    -1.3529    13.2138 H       0      r0     0.0186
   2237 C          -11.3857    -1.0312    13.5176 C       6      r6    -0.0175
   2238 C          -11.5191    -0.0963    14.7568 C       7      r7    -0.0141
   2239 C          -11.4798    -0.0843    12.2608 C       6      r6     0.0008
   2240 C          -10.3752    -3.1695    12.9959 C       0      r0    -0.0093
   2241 C          -10.1333    -1.8091    13.1819 C       6      r6     0.0013
   2242 C           -9.9243    -4.0309    12.0899 C       6      r6    -0.0029
   2243 C           -8.8928    -1.1672    12.7592 C       6      r6     0.0082
   2244 C           -8.7297    -3.7319    11.1819 C       6      r6     0.0087
   2245 H           -7.8365    -3.3923    11.6468 H       0      r0     0.0476
   2246 C           -7.7236    -2.2955    14.4256 C       0      r0     0.0128
   2247 C           -7.6309    -1.7907    13.1564 C       0      r0    -0.0217
   2248 H           -6.7946    -1.9128    12.6265 H       0      r0     0.0564
   2249 C           -1.9330    -0.1397   -15.2240 C       5      r5    -0.0019
   2250 H           -1.7151    -3.7150    13.7384 H       0      r0     0.0373
   2251 C           -1.7148    -1.8235    15.2138 C       5      r5     0.0071
   2252 C           -1.2065    -2.7364    14.1225 C       0      r0    -0.0186
   2253 C           -0.8777    -2.3152    12.9011 C       0      r0    -0.0014
   2254 C           -0.5345    -2.1492    11.4929 C       7      r7    -0.0020
   2255 C           -0.0482    -0.7086    11.0870 C       7      r7    -0.0003
   2256 H            1.1438    -3.1436    11.8966 H       0      r0     0.0195
   2257 C            2.1263    -3.6484    11.8182 C       0      r0    -0.0310
   2258 C            2.0905    -0.6169    14.0687 C       0      r0     0.0002
   2259 C            2.1139    -1.9798    14.6333 C       0      r0    -0.0071
   2260 H            2.8275    -2.7963    11.7667 H       0      r0     0.0216
   2261 H            2.7391    -1.1369    12.4106 H       0      r0     0.0183
   2262 C            3.4186    -0.5725    13.0784 C       0      r0    -0.0213
   2263 C            4.6761    -2.2505    15.0748 C       0      r0     0.0059
   2264 C            4.8936    -0.5749    13.1442 C       0      r0     0.0043
   2265 H            5.1846    -0.5867    10.9630 H       0      r0     0.0200
   2266 C            5.4196    -1.3376    14.4613 C       0      r0    -0.0211
   2267 C            5.7306    -0.3277    11.7822 C       0      r0    -0.0395
   2268 C            6.1634    -2.6362    11.8242 C       5      r5     0.0037
   2269 H            6.5039    -1.1152    14.6098 H       0      r0     0.0190
   2270 C            6.8686    -1.3927    11.8697 C       5      r5    -0.0015
   2271 C            6.9328    -3.5865    12.7084 C       5      r5    -0.0102
   2272 C            7.2262    -4.3409   -15.1756 C       3      r3     0.1552
   2273 C            8.1122    -1.7813    12.5733 C       5      r5    -0.0071
   2274 C            8.4785    -3.4326    12.5993 C       5      r5    -0.0086
   2275 C            8.6706    -1.4241    13.7439 C       0      r0    -0.0128
   2276 H            9.2722    -0.2184    12.3359 H       0      r0     0.0217
   2277 C            9.2635    -1.0982    14.9063 C       0      r0    -0.0269
   2278 C            9.6701    -4.0922    12.7253 C       0      r0    -0.0079
   2279 H           10.6110    -1.5290    12.3742 H       0      r0     0.0203
   2280 H           10.0907    -2.9234    14.5462 H       0      r0     0.0240
   2281 C           10.9438    -3.7762    12.2601 C       0      r0     0.0015
   2282 C           11.2852    -2.4365    11.9490 C       0      r0    -0.0184
   2283 C           11.4670    -1.1252    14.1801 C       0      r0    -0.0038
   2284 C           12.4100    -2.0096    14.7525 C       0      r0    -0.0023
   2285 C           12.6098    -2.0777    11.9641 C       0      r0     0.0051
   2286 C           13.2673    -3.0382    14.9879 C       5      r5    -0.0042
   2287 C           13.7241    -2.3773    11.6175 C       0      r0    -0.0239
   2288 H          -14.2221    -2.3118    12.0830 H       0      r0     0.0199
   2289 C          -14.0099     1.5405    13.5583 C       0      r0    -0.0155
   2290 C          -12.8717     2.1226    13.6358 C       0      r0    -0.0070
   2291 C          -11.8372     3.0321    13.7576 C       0      r0     0.0012
   2292 C          -11.3917     3.8849    12.6255 C       5      r5    -0.0057
   2293 C          -10.7632     2.4927    14.7008 C       5      r5     0.0019
   2294 C          -10.6550     1.0466    14.9359 C       5      r5     0.0014
   2295 C          -10.3884     1.7648    10.9209 C       5      r5    -0.0151
   2296 C          -10.2754     3.2647    11.8315 C       5      r5    -0.0044
   2297 C          -10.3008     0.7482    12.0912 C       6      r6     0.0015
   2298 C           -9.3402     2.9295    14.7453 C       5      r5    -0.0146
   2299 C           -9.4123     0.8250    14.3746 C       5      r5    -0.0008
   2300 C           -9.1006     0.2275    12.9825 C       6      r6     0.0018
   2301 H           -9.1561     4.0165    14.9949 H       0      r0     0.0202
   2302 C           -9.0368     3.6757    11.9664 C       5      r5     0.0013
   2303 C           -8.4015     1.8748    14.5845 C       5      r5     0.0044
   2304 C           -7.8633     2.8182    11.3821 C       5      r5    -0.0028
   2305 C           -6.9266     1.8695    15.0623 C       0      r0    -0.0002
   2306 C           -6.5263     2.4152    11.8021 C       7      r7     0.0002
   2307 C           -5.9791     3.5654    14.0348 C       7      r7     0.0016
   2308 C           -6.2179     3.5773    12.5214 C       7      r7    -0.0161
   2309 C           -5.6930     1.3116    11.4325 C       7      r7    -0.0241
   2310 C           -5.6669     2.2030    14.4286 C       7      r7    -0.0007
   2311 H           -5.3317     3.8001    12.0314 H       0      r0     0.0210
   2312 C           -4.5057     0.9718    12.3549 C       7      r7    -0.0102
   2313 C           -4.4490     1.4413    13.8786 C       7      r7     0.0005
   2314 H           -3.6970     0.3432    11.9276 H       0      r0     0.0290
   2315 H           -3.9147     2.8357    12.7855 H       0      r0     0.0220
   2316 C           -3.1514     3.5803    12.5546 C       0      r0    -0.0192
   2317 C           -3.0432     1.5922    14.2316 C       7      r7    -0.0045
   2318 C           -2.8841     4.1506    14.1353 C       0      r0     0.0003
   2319 C           -2.3145     2.9245    14.5045 C       7      r7     0.0004
   2320 C           -1.9950     3.5462    11.7815 C       0      r0    -0.0202
   2321 C           -1.7240     0.8318    14.4037 C       7      r7    -0.0002
   2322 H           -1.0430     3.8366    12.0431 H       0      r0     0.0235
   2323 C           -0.8650     0.4994    13.1444 C       0      r0    -0.0009
   2324 C           -0.4051     0.1542    11.9836 C       0      r0    -0.0002
   2325 C            0.7672     3.0576    11.1662 C       5      r5     0.0003
   2326 C            1.5858     0.4692    14.8993 C       0      r0    -0.0183
   2327 C            1.7081     3.4409    12.2341 C       5      r5     0.0012
   2328 C            1.4246     1.7578    14.2423 C       0      r0    -0.0000
   2329 C            1.5356     3.0487    13.6127 C       0      r0    -0.0024
   2330 C            2.4213     4.0078    14.3760 C       5      r5     0.0039
   2331 C            2.8967     3.4537    11.3324 C       5      r5    -0.0175
   2332 H            3.7597     3.3728    12.1045 H       0      r0     0.0197
   2333 C            4.0249     4.2228    14.4277 C       5      r5    -0.0365
   2334 H            4.4719     4.3653   -15.1240 H       0      r0     0.0233
   2335 H            4.4945     3.2599    13.9509 H       0      r0     0.0178
   2336 H            5.9946     0.7306    11.5099 H       0      r0     0.0210
   2337 H            6.4734     2.8307    14.3800 H       0      r0     0.0180
   2338 C            7.4617     2.1870    14.4185 C       0      r0    -0.0189
   2339 C            7.8439     3.8399    11.0230 C       0      r0     0.0004
   2340 H            7.5337     0.5275    13.9672 H       0      r0     0.0177
   2341 C            8.1467     1.2982    13.4053 C       0      r0    -0.0147
   2342 C            8.4823     1.4565    11.9659 C       0      r0    -0.0007
   2343 C            8.5763     2.8446    11.8392 C       0      r0     0.0012
   2344 C            9.8138     0.5156    11.6477 C       0      r0    -0.0170
   2345 C           10.2320     2.9755    14.2905 C       5      r5     0.0020
   2346 C           10.5836     4.2969    14.3105 C       5      r5     0.0011
   2347 C           10.8997     2.3693    12.9050 C       5      r5     0.0008
   2348 C           10.9004     1.0217    12.4636 C       0      r0    -0.0015
   2349 C           11.6219     3.4881    12.3078 C       5      r5    -0.0070
   2350 C           12.0567    -0.0111    13.2442 C       0      r0    -0.0066
   2351 C           12.3790     3.1589    10.9858 C       7      r7     0.0005
   2352 C           13.2001     0.2195    13.4576 C       0      r0    -0.0002
   2353 H           13.5742     1.0827    11.1060 H       0      r0     0.0222
   2354 C           13.8497     3.3530    11.0192 C       5      r5    -0.0129
   2355 H           14.1183     2.3462    13.5886 H       0      r0     0.0203
   2356 H           14.2270     4.0127    11.7945 H       0      r0     0.0192
   2357 C          -14.3837     0.1523    13.8251 C       0      r0    -0.0229
   2358 H          -13.9013     7.6551    11.9796 H       0      r0     0.0194
   2359 C          -13.9772     6.0649    13.6417 C       0      r0    -0.0327
   2360 H          -13.5015     6.5414    13.0459 H       0      r0     0.0211
   2361 H          -13.9975     8.0300    14.1793 H       0      r0     0.0207
   2362 C          -13.2455     6.1914    14.9674 C       0      r0     0.0028
   2363 H          -12.7540     6.3531    11.3722 H       0      r0     0.0190
   2364 C          -12.9696     7.5124    11.3957 C       0      r0    -0.0327
   2365 C          -11.7841     6.8396    14.7788 C       0      r0    -0.0044
   2366 C          -11.6680     7.9076    12.1190 C       0      r0    -0.0078
   2367 C          -11.2726     5.9819    13.8623 C       0      r0    -0.0071
   2368 C          -10.7815     8.0629    13.1616 C       0      r0    -0.0100
   2369 C          -10.5820     5.0927    12.9917 C       5      r5    -0.0051
   2370 C           -9.9041     8.8774    14.0246 C       0      r0    -0.0071
   2371 C           -9.5879     8.0232   -15.2310 C       6      r6     0.0016
   2372 C           -9.0941     4.9879    12.6328 C       5      r5    -0.0074
   2373 H           -8.7949     7.1869    13.1680 H       0      r0     0.0203
   2374 H           -8.4239     7.8370    11.2501 H       0      r0     0.0307
   2375 C           -7.7193     5.4878    12.8372 C       7      r7     0.0042
   2376 C           -7.9163     6.6591    13.6140 C       0      r0    -0.0188
   2377 C           -6.8329     7.1164    14.6743 C       0      r0    -0.0029
   2378 C           -6.4667     5.1330    12.0072 C       7      r7    -0.0045
   2379 C           -6.5383     4.6338    14.9618 C       5      r5    -0.0026
   2380 H           -5.6867     8.0159    13.4385 H       0      r0     0.0268
   2381 C           -5.9238     6.0030    14.9553 C       5      r5    -0.0017
   2382 C           -5.5870     5.9514    11.6514 C       0      r0     0.0012
   2383 C           -4.9409     8.8624    13.3756 C       0      r0    -0.0022
   2384 C           -4.8207     6.7784    11.0438 C       6      r6    -0.0437
   2385 H           -3.9571     7.3066    11.5145 H       0      r0     0.0360
   2386 C           -3.5914     7.4293    14.4083 C       0      r0    -0.0001
   2387 C           -3.5968     8.4247    13.4726 C       0      r0    -0.0184
   2388 C           -3.3008     6.3554   -15.2388 C       0      r0    -0.0025
   2389 H           -2.6904     8.8873    12.8919 H       0      r0     0.0222
   2390 C           -2.2861     5.2524    14.9018 C       0      r0    -0.0017
   2391 C           -0.8420     5.4492    14.7187 C       0      r0     0.0008
   2392 C           -0.0738     5.7866    13.9087 C       0      r0    -0.0019
   2393 C            0.9473     6.1650    13.3433 C       5      r5     0.0007
   2394 C            1.1796     6.5665    11.6831 C       5      r5    -0.0003
   2395 C            2.0423     5.5340    14.0406 C       5      r5     0.0017
   2396 C            2.6856     6.8268    11.9113 C       6      r6    -0.0042
   2397 H            3.1195     9.2543    14.2280 H       0      r0     0.0190
   2398 C            2.9290     8.5582    11.8448 C       6      r6     0.0283
   2399 C            3.0243     6.0952    13.3604 C       6      r6    -0.0039
   2400 C            3.9078     6.6610    11.0513 C       6      r6     0.0032
   2401 C            3.9777     5.2961    13.5515 C       6      r6     0.0024
   2402 C            5.1362     6.4688    11.7189 C       6      r6    -0.0232
   2403 C            5.1812     5.7224    12.9814 C       6      r6     0.0024
   2404 H            4.9601     6.7857    14.7736 H       0      r0     0.0251
   2405 H            5.8465     6.6388    11.0256 H       0      r0     0.0204
   2406 C            5.7435     6.6228    14.0803 C       0      r0    -0.0455
   2407 C            6.5681     8.0468    13.5160 C       5      r5    -0.0041
   2408 H            6.6500     6.4453    14.2754 H       0      r0     0.0285
   2409 C            8.0244     8.2536    13.6485 C       5      r5     0.0001
   2410 C            8.9494     7.1441    13.3373 C       0      r0    -0.0183
   2411 H            8.6910     7.0214    10.6480 H       0      r0     0.0151
   2412 C            9.3399     6.3077    14.3081 C       0      r0     0.0010
   2413 H            9.5235     5.4273    11.5241 H       0      r0     0.0254
   2414 C            9.9664     5.4919    15.0582 C       7      r7    -0.0012
   2415 H            9.2011     7.1518    12.0492 H       0      r0     0.0159
   2416 C           10.6732     8.8364    11.4848 C       0      r0    -0.0078
   2417 C           11.6375     4.5314    13.2655 C       5      r5     0.0016
   2418 H           11.9085     6.8010    13.5707 H       0      r0     0.0227
   2419 C           12.3950     5.7885    13.5367 C       0      r0    -0.0214
   2420 C           13.6459     5.8404    13.7591 C       0      r0     0.0053
   2421 C          -13.8738     9.1904    14.3908 C       5      r5    -0.0196
   2422 C          -13.4416    11.6582    14.2523 C       5      r5     0.0100
   2423 C          -12.8173    10.2819    14.6039 C       5      r5     0.0087
   2424 C          -12.4065    12.7664    13.7132 C       0      r0    -0.0124
   2425 H          -11.6780    13.2568    14.3116 H       0      r0     0.0258
   2426 C          -11.6140    10.5318    14.3212 C       0      r0    -0.0002
   2427 C          -10.1913    10.3339    14.1430 C       0      r0    -0.0007
   2428 C          -10.2585    12.8534    11.1636 C       6      r6    -0.0020
   2429 C           -9.5675    12.0877    12.1643 C       6      r6    -0.0078
   2430 C           -9.4549    12.8024    13.3988 C       6      r6    -0.0001
   2431 C           -9.3407    11.5381    14.3362 C       0      r0    -0.0099
   2432 H           -8.9113    10.1400    12.4367 H       0      r0     0.0209
   2433 C           -8.3321    11.0879    11.8918 C       7      r7    -0.0094
   2434 C           -6.9153    11.5681    12.2171 C       0      r0     0.0015
   2435 C           -6.4079    10.5969    12.8224 C       0      r0     0.0206
   2436 C           -6.2016    12.3511    11.1598 C       0      r0     0.0186
   2437 C           -5.0808    10.3642    13.2205 C       0      r0    -0.0004
   2438 C           -4.1844    11.2526    12.3676 C       5      r5     0.0073
   2439 C           -4.0898    12.6668    12.6715 C       5      r5    -0.0077
   2440 C           -3.8612    12.9779    13.8392 C       0      r0    -0.0065
   2441 C           -3.7837    10.7314    11.0227 C       5      r5    -0.0042
   2442 C           -3.2041    13.1675    14.8119 C       0      r0    -0.0100
   2443 C           -3.0667    12.8973    11.3466 C       5      r5     0.0034
   2444 H           -1.9507    10.3744    14.7830 H       0      r0     0.0199
   2445 H           -0.9244    13.0949    13.4570 H       0      r0     0.0245
   2446 C           -0.2578    12.8139    14.3941 C       0      r0    -0.0135
   2447 C            1.0373    12.7405    14.2496 C       0      r0    -0.0063
   2448 C            2.2100    12.8855    13.7089 C       7      r7     0.0505
   2449 O            2.3723    11.5253    11.3304 O       5      r5    -0.4943
   2450 C            3.2840     9.2074    13.0731 C       0      r0     0.0120
   2451 C            3.6545    11.2458    15.0759 C       5      r5     0.0046
   2452 C            3.6724    12.2900    14.1190 C       5      r5    -0.0528
   2453 C            4.4879    11.4998    13.0996 C       5      r5     0.0745
   2454 C            4.7340    10.3648    15.0175 C       5      r5     0.0091
   2455 C            4.7219    10.0904    13.3640 C       5      r5    -0.0023
   2456 C            4.9976    13.2139    14.7496 C       7      r7     0.3672
   2457 C            5.4575    11.9340    12.1413 C       7      r7     0.0461
   2458 C            5.9882     9.1349    12.8655 C       5      r5     0.0065
   2459 O            6.1726    13.0566    14.5762 O       0      r0    -0.5187
   2460 C            6.2116    12.0195    11.1852 C       7      r7     0.0245
   2461 C            7.0561     9.7831    12.2307 C       5      r5     0.0063
   2462 C            7.1203    13.3754    11.1536 C       0      r0     0.0317
   2463 C            8.4048     9.4963    12.8708 C       5      r5     0.0063
   2464 C            9.2011    10.9634    11.1841 C       0      r0    -0.0018
   2465 C            9.4693     9.7433    11.9272 C       0      r0    -0.0076
   2466 C           11.5672    10.4172    13.7996 C       6      r6    -0.0051
   2467 C           11.6735     9.6405    12.4636 C       0      r0    -0.0022
   2468 C           11.8807    11.9761    13.6133 C       6      r6    -0.0056
   2469 C           11.9865    12.8411    12.4997 C       0      r0    -0.0127
   2470 H           11.7230    13.6296    13.1903 H       0      r0     0.0245
   2471 C           12.3029     9.5546    14.6966 C       6      r6    -0.0060
   2472 C           12.6379    13.1940    11.2061 C       5      r5     0.0090
   2473 C           12.8701     9.4362    11.7274 C       0      r0    -0.0127
   2474 C           12.9621    12.3519    14.4843 C       6      r6     0.0108
   2475 C           13.8690     9.9202    14.5985 C       6      r6     0.0002
   2476 C           13.7165     9.1690    10.8303 C       0      r0    -0.0016
   2477 C           14.0951    11.4532    14.6019 C       6      r6    -0.0000
   2478 H           13.7461    11.2729    11.3235 H       0      r0     0.0214
   2479 B           14.4464   -13.6800    15.2539 B       8     BOX     0.0000
   2480 B          -14.4464   -13.6800    15.2539 B       8     BOX     0.0000
   2481 B          -14.4464    13.6800    15.2539 B       8     BOX     0.0000
   2482 B           14.4464    13.6800    15.2539 B       8     BOX     0.0000
   2483 B           14.4464   -13.6800   -15.2539 B       8     BOX     0.0000
   2484 B          -14.4464   -13.6800   -15.2539 B       8     BOX     0.0000
   2485 B          -14.4464    13.6800   -15.2539 B       8     BOX     0.0000
   2486 B           14.4464    13.6800   -15.2539 B       8     BOX     0.0000
@<TRIPOS>BOND
     1      1    121      1
     2      2      4      1
     3      3      5      1
     4      4    353      1
     5      5      6      1
     6      5      8      1
     7      7      9      1
     8      8      9      1
     9      8     75      1
    10      9     12      1
    11      9    407      1
    12     10    299      1
    13     10    301      1
    14     11     13      1
    15     12     14      1
    16     12    358      1
    17     13     16      1
    18     14     15      1
    19     14     17      1
    20     16     18      1
    21     16    306      1
    22     17     18      1
    23     17     20      1
    24     18     19      1
    25     19     21      1
    26     20     22      1
    27     20    359      1
    28     22     23      1
    29     23     24      1
    30     24     28      1
    31     24    366      1
    32     24    367      1
    33     25    313      1
    34     26     27      1
    35     26     29      1
    36     27     28      1
    37     28     30      1
    38     29     31      1
    39     29     89      1
    40     30     33      1
    41     31     32      1
    42     32     34      1
    43     33     35      1
    44     33    372      1
    45     34     39      1
    46     34     92      1
    47     35    374      1
    48     36   2142      1
    49     37    323      1
    50     40     41      1
    51     41     42      1
    52     41     43      1
    53     42    379      1
    54     43     44      1
    55     44     45      1
    56     46     47      1
    57     47     49      1
    58     47    100      1
    59     48     49      1
    60     49     52      1
    61     50     51      1
    62     50     52      1
    63     51     54      1
    64     51    381      1
    65     52     53      1
    66     54    388      1
    67     55     57      1
    68     55     58      1
    69     55    110      1
    70     56    388      1
    71     57     63      1
    72     57    389      1
    73     58     60      1
    74     59     61      1
    75     59     62      1
    76     60     62      1
    77     62     66      1
    78     63     64      1
    79     63     65      1
    80     63    394      1
    81     66     70      1
    82     67    121      1
    83     68     69      1
    84     68    399      1
    85     69     70      1
    86     70     71      1
    87     73     74      1
    88     74    125      1
    89     74    129      1
    90     75     76      1
    91     75     78      1
    92     76     77      1
    93     76    406      1
    94     77     79      1
    95     77    129      1
    96     79     80      1
    97     79    133      1
    98     80    136      1
    99     81     82      1
   100     82     83      1
   101     82    416      1
   102     83     85      1
   103     83    423      1
   104     84     85      1
   105     85     87      1
   106     86     90      1
   107     87     88      1
   108     87     89      1
   109     88     91      1
   110     88    426      1
   111     89     92      1
   112     90    151      1
   113     91     93      1
   114     91    431      1
   115     92     93      1
   116     93    432      1
   117     94     97      1
   118     95     96      1
   119     95     99      1
   120     95    154      1
   121     96     97      1
   122     97    100      1
   123     98    100      1
   124     98    101      1
   125     98    438      1
   126    101    438      1
   127    101    441      1
   128    102    162      1
   129    103    104      1
   130    104    105      1
   131    104    106      1
   132    105    108      1
   133    105    441      1
   134    106    107      1
   135    106    110      1
   136    108    110      1
   137    108    447      1
   138    109    170      1
   139    109   2272      1
   140    111    112      1
   141    112    113      1
   142    113    115      1
   143    113    174      1
   144    114    116      1
   145    115    117      1
   146    115    179      1
   147    116    117      1
   148    116    118      1
   149    116    120      1
   150    119    120      1
   151    119    456      1
   152    119    457      1
   153    119    458      1
   154    120    122      1
   155    122    123      1
   156    123    179      1
   157    124    127      1
   158    124    185      1
   159    126    128      1
   160    126    462      1
   161    126    464      1
   162    127    128      1
   163    127    130      1
   164    128    131      1
   165    129    131      1
   166    130    132      1
   167    131    133      1
   168    132    134      1
   169    133    467      1
   170    134    135      1
   171    135    139      1
   172    136    137      1
   173    136    139      1
   174    137    138      1
   175    137    472      1
   176    138    473      1
   177    139    142      1
   178    140    141      1
   179    141    143      1
   180    141    194      1
   181    142    144      1
   182    143    144      1
   183    143    145      1
   184    144    146      1
   185    145    148      1
   186    145    479      1
   187    147    149      1
   188    147    202      1
   189    147   2249      1
   190    148    149      1
   191    148    486      1
   192    149    150      1
   193    150    151      1
   194    151    152      1
   195    152    154      1
   196    153    156      1
   197    154    157      1
   198    155    491      1
   199    156    158      1
   200    156    209      1
   201    157    160      1
   202    158    159      1
   203    158    216      1
   204    160    161      1
   205    161    163      1
   206    162    163      1
   207    162    501      1
   208    163    165      1
   209    164    166      1
   210    165    166      1
   211    165    169      1
   212    166    168      1
   213    167    169      1
   214    168    173      1
   215    168    223      1
   216    169    172      1
   217    170    174      1
   218    170   2272      1
   219    172    173      1
   220    172    175      1
   221    173    178      1
   222    174    176      1
   223    177    232      1
   224    178    229      1
   225    178    512      1
   226    180    182      1
   227    180    232      1
   228    181    516      1
   229    182    183      1
   230    184    243      1
   231    185    186      1
   232    186    524      1
   233    187    189      1
   234    188    189      1
   235    188    246      1
   236    189    190      1
   237    190    191      1
   238    190    532      1
   239    191    192      1
   240    192    193      1
   241    192    196      1
   242    193    258      1
   243    194    196      1
   244    194    197      1
   245    195    536      1
   246    196    198      1
   247    198    199      1
   248    198    201      1
   249    199    258      1
   250    199    261      1
   251    199    263      1
   252    200    201      1
   253    201    202      1
   254    201    204      1
   255    202    203      1
   256    203    206      1
   257    204    205      1
   258    204    543      1
   259    205    206      1
   260    205    268      1
   261    206    208      1
   262    207    209      1
   263    208    213      1
   264    209    212      1
   265    211    212      1
   266    211    214      1
   267    211    549      1
   268    212    216      1
   269    213    215      1
   270    214    217      1
   271    214    274      1
   272    215    276      1
   273    216    217      1
   274    217    554      1
   275    218    219      1
   276    219    220      1
   277    219    281      1
   278    220    221      1
   279    220    222      1
   280    220    225      1
   281    222    223      1
   282    222    224      1
   283    224    226      1
   284    225    227      1
   285    225    286      1
   286    226    227      1
   287    227    230      1
   288    228    230      1
   289    228    289      1
   290    228    571      1
   291    230    234      1
   292    230    292      1
   293    231    232      1
   294    233    234      1
   295    233    235      1
   296    233    574      1
   297    234    237      1
   298    235    239      1
   299    235    515      1
   300    236    238      1
   301    237    238      1
   302    237    239      1
   303    240    242      1
   304    240    298      1
   305    241    242      1
   306    241    588      1
   307    242    586      1
   308    244    247      1
   309    244   2371      1
   310    245    246      1
   311    246    247      1
   312    247    249      1
   313    248    249      1
   314    248    251      1
   315    248    589      1
   316    249    250      1
   317    250    252      1
   318    250    307      1
   319    251    253      1
   320    251    595      1
   321    252    254      1
   322    252   2371      1
   323    253    255      1
   324    254    256      1
   325    255    257      1
   326    255    601      1
   327    256    257      1
   328    256    260      1
   329    258    259      1
   330    259   2388      1
   331    260    262      1
   332    260    310      1
   333    262    265      1
   334    264    266      1
   335    264    607      1
   336    265    266      1
   337    265    267      1
   338    266    268      1
   339    267    269      1
   340    267    317      1
   341    268    270      1
   342    269    271      1
   343    269    272      1
   344    270    272      1
   345    270    273      1
   346    272    275      1
   347    273    274      1
   348    273    615      1
   349    274    276      1
   350    275    277      1
   351    276    279      1
   352    277    278      1
   353    277    280      1
   354    279    280      1
   355    279    281      1
   356    280    282      1
   357    281    283      1
   358    282    283      1
   359    282    284      1
   360    283    285      1
   361    284    333      1
   362    284    335      1
   363    285    286      1
   364    285    288      1
   365    287    288      1
   366    287    289      1
   367    287    631      1
   368    288    290      1
   369    290    291      1
   370    290    343      1
   371    291    293      1
   372    291    342      1
   373    292    294      1
   374    293    295      1
   375    294    295      1
   376    295    296      1
   377    299    646      1
   378    300    586      1
   379    300    647      1
   380    301    302      1
   381    302    304      1
   382    302    651      1
   383    303    305      1
   384    308    310      1
   385    309    310      1
   386    310    315      1
   387    311    658      1
   388    312    314      1
   389    312    658      1
   390    313    314      1
   391    313    316      1
   392    314    318      1
   393    315    317      1
   394    316    320      1
   395    317    321      1
   396    318    322      1
   397    318    665      1
   398    319    668      1
   399    320    323      1
   400    322    323      1
   401    324    326      1
   402    325    326      1
   403    326    327      1
   404    328    329      1
   405    329    330      1
   406    329    332      1
   407    329    334      1
   408    331    333      1
   409    332    335      1
   410    332    682      1
   411    333    336      1
   412    334    336      1
   413    334    337      1
   414    335    692      1
   415    336    338      1
   416    337    339      1
   417    338    339      1
   418    338    340      1
   419    341    343      1
   420    341    692      1
   421    343    345      1
   422    345    347      1
   423    346    348      1
   424    347    349      1
   425    348    349      1
   426    350    353      1
   427    350    354      1
   428    351    354      1
   429    351    705      1
   430    352    355      1
   431    352    703      1
   432    353    355      1
   433    354    408      1
   434    356    708      1
   435    357    358      1
   436    358    359      1
   437    360    361      1
   438    361    363      1
   439    361    719      1
   440    362    364      1
   441    362    719      1
   442    362    722      1
   443    363    365      1
   444    364    365      1
   445    364    424      1
   446    365    367      1
   447    367    368      1
   448    368    369      1
   449    369    370      1
   450    369    372      1
   451    370    371      1
   452    371    727      1
   453    372    373      1
   454    373    374      1
   455    373    376      1
   456    375    376      1
   457    376    377      1
   458    377    378      1
   459    377    379      1
   460    379    381      1
   461    380    382      1
   462    380    738      1
   463    381    383      1
   464    382    383      1
   465    382    744      1
   466    383    385      1
   467    384    385      1
   468    385    387      1
   469    386    745      1
   470    387    388      1
   471    387    389      1
   472    388    390      1
   473    389    447      1
   474    391    393      1
   475    392    394      1
   476    393    395      1
   477    393    749      1
   478    393    751      1
   479    394    396      1
   480    395    396      1
   481    395    397      1
   482    396    398      1
   483    397    402      1
   484    397    755      1
   485    398    399      1
   486    398    401      1
   487    400    401      1
   488    401    402      1
   489    404    405      1
   490    405    406      1
   491    405    409      1
   492    406    407      1
   493    407    408      1
   494    408    410      1
   495    409    410      1
   496    409    411      1
   497    410    412      1
   498    411    413      1
   499    412    768      1
   500    413    414      1
   501    413    469      1
   502    415    418      1
   503    415    768      1
   504    415    770      1
   505    417    418      1
   506    418    419      1
   507    419    421      1
   508    420    423      1
   509    420    472      1
   510    420    480      1
   511    421    477      1
   512    421    777      1
   513    422    424      1
   514    423    426      1
   515    424    425      1
   516    425    428      1
   517    425    724      1
   518    426    427      1
   519    427    429      1
   520    427    480      1
   521    427    484      1
   522    428    430      1
   523    428    782      1
   524    431    433      1
   525    433    434      1
   526    433    435      1
   527    434    487      1
   528    434    493      1
   529    436    437      1
   530    436    439      1
   531    436    734      1
   532    437    440      1
   533    437    789      1
   534    440    493      1
   535    440    497      1
   536    441    443      1
   537    442    443      1
   538    442    446      1
   539    442    501      1
   540    443    444      1
   541    445    446      1
   542    445    796      1
   543    445    803      1
   544    446    503      1
   545    447    448      1
   546    448    449      1
   547    448    450      1
   548    450    451      1
   549    450    453      1
   550    452    453      1
   551    453    454      1
   552    454    510      1
   553    455    814      1
   554    457    510      1
   555    457    516      1
   556    458    459      1
   557    461    463      1
   558    461    823      1
   559    463    465      1
   560    463    829      1
   561    464    465      1
   562    464    467      1
   563    465    468      1
   564    466    468      1
   565    466    829      1
   566    466    834      1
   567    467    469      1
   568    468    469      1
   569    470    533      1
   570    471    473      1
   571    471    533      1
   572    473    476      1
   573    474    477      1
   574    475    476      1
   575    476    479      1
   576    477    478      1
   577    477    777      1
   578    478    481      1
   579    478    847      1
   580    479    480      1
   581    480    481      1
   582    481    482      1
   583    482    483      1
   584    482    485      1
   585    483    544      1
   586    483    850      1
   587    486    488      1
   588    487    489      1
   589    487    856      1
   590    488    490      1
   591    488    546      1
   592    490    491      1
   593    490    492      1
   594    492    494      1
   595    492    550      1
   596    493    495      1
   597    494    495      1
   598    494    496      1
   599    495    498      1
   600    496    499      1
   601    496    553      1
   602    497    498      1
   603    497    796      1
   604    497    863      1
   605    498    499      1
   606    499    868      1
   607    500    501      1
   608    502    561      1
   609    503    504      1
   610    503    871      1
   611    504    506      1
   612    505    566      1
   613    506    507      1
   614    507    508      1
   615    507    879      1
   616    509    511      1
   617    510    511      1
   618    511    513      1
   619    511    514      1
   620    512    514      1
   621    512    515      1
   622    513    517      1
   623    513    881      1
   624    514    516      1
   625    515    579      1
   626    519    520      1
   627    519    521      1
   628    520    522      1
   629    520    581      1
   630    521    526      1
   631    521    588      1
   632    522    524      1
   633    522    525      1
   634    523    525      1
   635    525    527      1
   636    526    527      1
   637    526    591      1
   638    527    528      1
   639    528    897      1
   640    529    531      1
   641    530    531      1
   642    530    896      1
   643    530    898      1
   644    531    533      1
   645    534    595      1
   646    535    538      1
   647    536    537      1
   648    536    602      1
   649    537    538      1
   650    538    539      1
   651    539    541      1
   652    540    908      1
   653    541    545      1
   654    542    543      1
   655    543    607      1
   656    544    545      1
   657    544    912      1
   658    544    915      1
   659    545    546      1
   660    546    550      1
   661    547    548      1
   662    547    611      1
   663    547    920      1
   664    548    549      1
   665    550    551      1
   666    551    923      1
   667    552    553      1
   668    553    557      1
   669    554    556      1
   670    554    558      1
   671    555    930      1
   672    557    559      1
   673    557    870      1
   674    557    929      1
   675    558    560      1
   676    560    561      1
   677    561    566      1
   678    562    563      1
   679    562    628      1
   680    562    936      1
   681    563    564      1
   682    563    567      1
   683    564    566      1
   684    564    939      1
   685    565    566      1
   686    568    572      1
   687    569    570      1
   688    569    941      1
   689    569    945      1
   690    570    572      1
   691    570    573      1
   692    571    573      1
   693    571    574      1
   694    572    574      1
   695    572    575      1
   696    573    636      1
   697    576    577      1
   698    576    578      1
   699    577    580      1
   700    577    638      1
   701    578    945      1
   702    578    950      1
   703    580    642      1
   704    582    583      1
   705    582    587      1
   706    583    584      1
   707    583    644      1
   708    584    585      1
   709    584    952      1
   710    586    587      1
   711    587    649      1
   712    588    589      1
   713    589    591      1
   714    590    593      1
   715    590    649      1
   716    590    652      1
   717    591    595      1
   718    592    593      1
   719    593    594      1
   720    594    596      1
   721    594    597      1
   722    596    653      1
   723    596    967      1
   724    597    598      1
   725    597    966      1
   726    599    602      1
   727    600    603      1
   728    600    906      1
   729    600    966      1
   730    602    603      1
   731    602    604      1
   732    603    605      1
   733    605    606      1
   734    605    908      1
   735    606    607      1
   736    606    611      1
   737    608    664      1
   738    608    669      1
   739    608    978      1
   740    609    610      1
   741    610    612      1
   742    610    664      1
   743    611    612      1
   744    613    615      1
   745    614    616      1
   746    615    616      1
   747    615    617      1
   748    616    619      1
   749    617    618      1
   750    618    924      1
   751    619    620      1
   752    619    680      1
   753    620    621      1
   754    620    623      1
   755    622    624      1
   756    622    684      1
   757    622    991      1
   758    623    626      1
   759    623    682      1
   760    624    627      1
   761    624    997      1
   762    625    628      1
   763    627    629      1
   764    627    686      1
   765    628    629      1
   766    629    632      1
   767    630    631      1
   768    631    632      1
   769    632    633      1
   770    634   1004      1
   771    635    636      1
   772    636    638      1
   773    637    698      1
   774    638    640      1
   775    639    640      1
   776    640    641      1
   777    640    642      1
   778    641    698      1
   779    643    645      1
   780    643   1020      1
   781    645    646      1
   782    646    647      1
   783    647    648      1
   784    648    649      1
   785    648    650      1
   786    650    652      1
   787    652    653      1
   788    653    655      1
   789    654    655      1
   790    655   1031      1
   791    656    657      1
   792    658    661      1
   793    659    660      1
   794    660    661      1
   795    660    664      1
   796    661    663      1
   797    662   1041      1
   798    664    667      1
   799    666   1041      1
   800    667    668      1
   801    667    670      1
   802    668    671      1
   803    669    670      1
   804    669    987      1
   805    670    673      1
   806    671    674      1
   807    672    677      1
   808    672   1045      1
   809    673    675      1
   810    673    678      1
   811    674    676      1
   812    674    679      1
   813    675    987      1
   814    675    991      1
   815    676    677      1
   816    677    678      1
   817    677    681      1
   818    678    679      1
   819    679    680      1
   820    680    682      1
   821    681    685      1
   822    683    684      1
   823    684    686      1
   824    685    688      1
   825    686    689      1
   826    687    688      1
   827    688    690      1
   828    689    691      1
   829    689    693      1
   830    690    694      1
   831    691    692      1
   832    693    694      1
   833    693   1058      1
   834    694   1061      1
   835    696    697      1
   836    697    699      1
   837    697   1070      1
   838    698    699      1
   839    699    700      1
   840    701    704      1
   841    701    759      1
   842    702    706      1
   843    704    707      1
   844    705    708      1
   845    705    759      1
   846    706   1076      1
   847    707    709      1
   848    707   1077      1
   849    707   1079      1
   850    708    710      1
   851    709    710      1
   852    710    712      1
   853    711    713      1
   854    711   1079      1
   855    711   1085      1
   856    712    714      1
   857    712    767      1
   858    712    768      1
   859    713    715      1
   860    714    717      1
   861    715    718      1
   862    716    717      1
   863    717    719      1
   864    718    721      1
   865    718   1091      1
   866    720    775      1
   867    721    723      1
   868    722    724      1
   869    722    774      1
   870    722    775      1
   871    723    725      1
   872    724    726      1
   873    725   1039      1
   874    726    727      1
   875    726    781      1
   876    727    729      1
   877    727    782      1
   878    728    730      1
   879    728   1039      1
   880    730    731      1
   881    731    732      1
   882    731   1105      1
   883    732    733      1
   884    732    737      1
   885    733    792      1
   886    734    736      1
   887    734    790      1
   888    735    738      1
   889    735   1049      1
   890    737    739      1
   891    739    740      1
   892    740   1120      1
   893    741    744      1
   894    742    743      1
   895    742    799      1
   896    742    800      1
   897    743    744      1
   898    744    745      1
   899    745    747      1
   900    746    748      1
   901    746   1121      1
   902    747    748      1
   903    747    751      1
   904    748    752      1
   905    750    752      1
   906    751    753      1
   907    751    754      1
   908    752    754      1
   909    752   1129      1
   910    754    755      1
   911    755    756      1
   912    756    757      1
   913    758    759      1
   914    758    761      1
   915    760    761      1
   916    760    825      1
   917    761    762      1
   918    761    763      1
   919    763    764      1
   920    763    765      1
   921    764   1077      1
   922    765    828      1
   923    765   1146      1
   924    766    769      1
   925    766    835      1
   926    766   1146      1
   927    769    772      1
   928    769    840      1
   929    770    771      1
   930    771    772      1
   931    771    838      1
   932    772    773      1
   933    773    776      1
   934    773   1157      1
   935    775    776      1
   936    776    778      1
   937    777    779      1
   938    778    780      1
   939    778    781      1
   940    779    852      1
   941    780   1161      1
   942    780   1165      1
   943    781   1099      1
   944    782    784      1
   945    783   1099      1
   946    784    785      1
   947    784    786      1
   948    787    791      1
   949    788    792      1
   950    789    790      1
   951    789    793      1
   952    790    792      1
   953    791    793      1
   954    791    794      1
   955    794    795      1
   956    794   1169      1
   957    795    798      1
   958    796    798      1
   959    797    799      1
   960    797   1173      1
   961    798    802      1
   962    801    802      1
   963    801   1174      1
   964    801   1176      1
   965    802    805      1
   966    804    806      1
   967    805    807      1
   968    805    810      1
   969    805    873      1
   970    806    808      1
   971    806    809      1
   972    806   1175      1
   973    808    810      1
   974    808   1176      1
   975    810    811      1
   976    811    812      1
   977    811    877      1
   978    813   1187      1
   979    814    815      1
   980    814    816      1
   981    816    818      1
   982    816    820      1
   983    817    820      1
   984    818    881      1
   985    819    821      1
   986    819    883      1
   987    819   1192      1
   988    820    821      1
   989    823    826      1
   990    824    825      1
   991    824    827      1
   992    825    828      1
   993    826    827      1
   994    826    829      1
   995    827    830      1
   996    828    831      1
   997    828   1199      1
   998    829    832      1
   999    830    831      1
  1000    830    833      1
  1001    831    835      1
  1002    833    834      1
  1003    833    837      1
  1004    834    836      1
  1005    835   1208      1
  1006    836    838      1
  1007    837    839      1
  1008    837    841      1
  1009    838    840      1
  1010    839    840      1
  1011    839   1208      1
  1012    841    842      1
  1013    841    898      1
  1014    843    845      1
  1015    844    846      1
  1016    844   1218      1
  1017    845    846      1
  1018    845    847      1
  1019    846    849      1
  1020    847    850      1
  1021    848    849      1
  1022    848   1218      1
  1023    848   1274      1
  1024    849    851      1
  1025    850    909      1
  1026    852    853      1
  1027    852    854      1
  1028    853    855      1
  1029    853   1222      1
  1030    854    856      1
  1031    854    857      1
  1032    855    857      1
  1033    855   1226      1
  1034    857    860      1
  1035    858   1229      1
  1036    859    860      1
  1037    860    861      1
  1038    861    862      1
  1039    862    864      1
  1040    862    865      1
  1041    865    866      1
  1042    865   1236      1
  1043    866    867      1
  1044    867    932      1
  1045    868    870      1
  1046    868    871      1
  1047    869    871      1
  1048    870    937      1
  1049    872    873      1
  1050    873    875      1
  1051    874    937      1
  1052    874    940      1
  1053    875    876      1
  1054    875    877      1
  1055    876    878      1
  1056    876   1244      1
  1057    877    879      1
  1058    879    881      1
  1059    880    883      1
  1060    882    884      1
  1061    883    886      1
  1062    883   1255      1
  1063    884    885      1
  1064    884    886      1
  1065    885    948      1
  1066    887    891      1
  1067    887   1257      1
  1068    887   1306      1
  1069    889    890      1
  1070    889    892      1
  1071    889   1257      1
  1072    891    892      1
  1073    891    953      1
  1074    892    893      1
  1075    893    894      1
  1076    893    895      1
  1077    894    896      1
  1078    895    899      1
  1079    895   1263      1
  1080    896    897      1
  1081    897    900      1
  1082    899    901      1
  1083    901    902      1
  1084    902    903      1
  1085    902    907      1
  1086    903    904      1
  1087    904    906      1
  1088    904    968      1
  1089    905    907      1
  1090    906    908      1
  1091    907    909      1
  1092    908    911      1
  1093    909    912      1
  1094    910   1327      1
  1095    911    913      1
  1096    911    980      1
  1097    912    913      1
  1098    913    914      1
  1099    914    916      1
  1100    914    918      1
  1101    916    980      1
  1102    916    983      1
  1103    916    985      1
  1104    917    918      1
  1105    918    921      1
  1106    919    920      1
  1107    920    924      1
  1108    920    985      1
  1109    921    922      1
  1110    921   1284      1
  1111    922    925      1
  1112    922   1282      1
  1113    923    926      1
  1114    924    927      1
  1115    925    928      1
  1116    925    992      1
  1117    928    996      1
  1118    928   1291      1
  1119    930    931      1
  1120    930    936      1
  1121    931    934      1
  1122    931    996      1
  1123    932    933      1
  1124    932    935      1
  1125    933    934      1
  1126    933    937      1
  1127    934    938      1
  1128    936    938      1
  1129    938    939      1
  1130    939    941      1
  1131    940    942      1
  1132    941    943      1
  1133    942    943      1
  1134    942   1299      1
  1135    943    944      1
  1136    944    945      1
  1137    944    946      1
  1138    946    947      1
  1139    946    948      1
  1140    948    950      1
  1141    951    952      1
  1142    952    955      1
  1143    953    955      1
  1144    953    958      1
  1145    954    955      1
  1146    955    959      1
  1147    956    957      1
  1148    957   1025      1
  1149    957   1311      1
  1150    958   1313      1
  1151    959    960      1
  1152    960    961      1
  1153    961    963      1
  1154    961   1313      1
  1155    962    965      1
  1156    963    964      1
  1157    963   1316      1
  1158    965    966      1
  1159    965    968      1
  1160    967    969      1
  1161    967   1031      1
  1162    968    970      1
  1163    969    970      1
  1164    969    971      1
  1165    970    972      1
  1166    971    975      1
  1167    971   1032      1
  1168    972    973      1
  1169    972    974      1
  1170    973   1323      1
  1171    973   1327      1
  1172    974    975      1
  1173    974    976      1
  1174    975    978      1
  1175    976    979      1
  1176    976    980      1
  1177    977   1037      1
  1178    981    982      1
  1179    981   1335      1
  1180    981   1338      1
  1181    982    984      1
  1182    982   1335      1
  1183    982   1401      1
  1184    985    986      1
  1185    986    988      1
  1186    987    988      1
  1187    988    990      1
  1188    989    990      1
  1189    990    991      1
  1190    990    993      1
  1191    992    993      1
  1192    993    994      1
  1193    995   1349      1
  1194    996    998      1
  1195    998   1001      1
  1196    998   1351      1
  1197    999   1002      1
  1198    999   1053      1
  1199   1000   1002      1
  1200   1001   1003      1
  1201   1001   1359      1
  1202   1002   1363      1
  1203   1004   1005      1
  1204   1004   1058      1
  1205   1005   1006      1
  1206   1005   1008      1
  1207   1006   1062      1
  1208   1006   1066      1
  1209   1007   1010      1
  1210   1007   1011      1
  1211   1007   1364      1
  1212   1008   1009      1
  1213   1008   1010      1
  1214   1010   1012      1
  1215   1014   1370      1
  1216   1015   1072      1
  1217   1016   1074      1
  1218   1018   1019      1
  1219   1019   1021      1
  1220   1019   1377      1
  1221   1020   1022      1
  1222   1021   1026      1
  1223   1022   1024      1
  1224   1023   1024      1
  1225   1024   1027      1
  1226   1025   1027      1
  1227   1026   1028      1
  1228   1027   1028      1
  1229   1028   1029      1
  1230   1029   1030      1
  1231   1031   1032      1
  1232   1032   1034      1
  1233   1033   1035      1
  1234   1034   1035      1
  1235   1035   1036      1
  1236   1036   1041      1
  1237   1037   1040      1
  1238   1037   1395      1
  1239   1038   1040      1
  1240   1040   1042      1
  1241   1041   1043      1
  1242   1042   1044      1
  1243   1043   1045      1
  1244   1044   1046      1
  1245   1044   1399      1
  1246   1047   1048      1
  1247   1048   1050      1
  1248   1048   1404      1
  1249   1050   1052      1
  1250   1051   1410      1
  1251   1052   1053      1
  1252   1052   1350      1
  1253   1053   1055      1
  1254   1054   1055      1
  1255   1055   1056      1
  1256   1056   1057      1
  1257   1057   1060      1
  1258   1057   1416      1
  1259   1059   1061      1
  1260   1060   1062      1
  1261   1060   1063      1
  1262   1062   1363      1
  1263   1063   1065      1
  1264   1064   1065      1
  1265   1065   1069      1
  1266   1066   1068      1
  1267   1066   1071      1
  1268   1067   1070      1
  1269   1070   1073      1
  1270   1071   1072      1
  1271   1071   1074      1
  1272   1073   1074      1
  1273   1075   1076      1
  1274   1076   1079      1
  1275   1077   1078      1
  1276   1078   1082      1
  1277   1078   1143      1
  1278   1079   1081      1
  1279   1080   1083      1
  1280   1080   1084      1
  1281   1082   1083      1
  1282   1083   1087      1
  1283   1084   1088      1
  1284   1085   1086      1
  1285   1085   1091      1
  1286   1087   1088      1
  1287   1087   1089      1
  1288   1088   1090      1
  1289   1089   1093      1
  1290   1089   1441      1
  1291   1090   1092      1
  1292   1092   1093      1
  1293   1092   1095      1
  1294   1093   1094      1
  1295   1094   1097      1
  1296   1094   1447      1
  1297   1096   1097      1
  1298   1097   1098      1
  1299   1098   1100      1
  1300   1098   1454      1
  1301   1099   1164      1
  1302   1100   1102      1
  1303   1100   1164      1
  1304   1101   1102      1
  1305   1102   1104      1
  1306   1103   1106      1
  1307   1104   1105      1
  1308   1104   1106      1
  1309   1105   1108      1
  1310   1106   1109      1
  1311   1108   1112      1
  1312   1109   1110      1
  1313   1109   1111      1
  1314   1110   1113      1
  1315   1113   1114      1
  1316   1113   1468      1
  1317   1114   1409      1
  1318   1115   1409      1
  1319   1116   1117      1
  1320   1116   1118      1
  1321   1116   1172      1
  1322   1118   1119      1
  1323   1118   1173      1
  1324   1119   1120      1
  1325   1120   1121      1
  1326   1122   1124      1
  1327   1123   1124      1
  1328   1123   1125      1
  1329   1124   1126      1
  1330   1125   1483      1
  1331   1126   1128      1
  1332   1126   1481      1
  1333   1127   1129      1
  1334   1128   1133      1
  1335   1128   1483      1
  1336   1129   1130      1
  1337   1129   1131      1
  1338   1130   1132      1
  1339   1133   1134      1
  1340   1133   1135      1
  1341   1134   1136      1
  1342   1134   1189      1
  1343   1135   1488      1
  1344   1137   1142      1
  1345   1138   1140      1
  1346   1140   1198      1
  1347   1140   1495      1
  1348   1141   1142      1
  1349   1142   1143      1
  1350   1142   1492      1
  1351   1143   1145      1
  1352   1144   1145      1
  1353   1144   1495      1
  1354   1144   1499      1
  1355   1145   1148      1
  1356   1146   1147      1
  1357   1148   1149      1
  1358   1148   1151      1
  1359   1150   1151      1
  1360   1150   1499      1
  1361   1150   1504      1
  1362   1151   1153      1
  1363   1152   1154      1
  1364   1153   1156      1
  1365   1154   1157      1
  1366   1154   1158      1
  1367   1155   1156      1
  1368   1155   1504      1
  1369   1155   1510      1
  1370   1156   1159      1
  1371   1157   1161      1
  1372   1158   1160      1
  1373   1158   1215      1
  1374   1159   1162      1
  1375   1160   1161      1
  1376   1160   1221      1
  1377   1162   1163      1
  1378   1162   1164      1
  1379   1166   1167      1
  1380   1166   1234      1
  1381   1166   1517      1
  1382   1168   1171      1
  1383   1170   1172      1
  1384   1171   1172      1
  1385   1171   1173      1
  1386   1176   1177      1
  1387   1177   1178      1
  1388   1177   1181      1
  1389   1178   1241      1
  1390   1178   1242      1
  1391   1179   1180      1
  1392   1179   1481      1
  1393   1179   1537      1
  1394   1180   1181      1
  1395   1181   1185      1
  1396   1182   1544      1
  1397   1183   1185      1
  1398   1183   1242      1
  1399   1183   1249      1
  1400   1184   1187      1
  1401   1185   1188      1
  1402   1186   1187      1
  1403   1187   1189      1
  1404   1188   1191      1
  1405   1188   1192      1
  1406   1189   1191      1
  1407   1190   1193      1
  1408   1191   1194      1
  1409   1192   1195      1
  1410   1193   1253      1
  1411   1193   1552      1
  1412   1196   1197      1
  1413   1196   1200      1
  1414   1200   1201      1
  1415   1200   1202      1
  1416   1201   1258      1
  1417   1201   1261      1
  1418   1202   1203      1
  1419   1202   1206      1
  1420   1202   1262      1
  1421   1204   1205      1
  1422   1205   1206      1
  1423   1205   1209      1
  1424   1206   1207      1
  1425   1206   1210      1
  1426   1208   1210      1
  1427   1209   1211      1
  1428   1209   1565      1
  1429   1210   1212      1
  1430   1211   1212      1
  1431   1211   1215      1
  1432   1212   1213      1
  1433   1213   1214      1
  1434   1213   1216      1
  1435   1214   1268      1
  1436   1214   1568      1
  1437   1215   1217      1
  1438   1215   1570      1
  1439   1216   1218      1
  1440   1216   1269      1
  1441   1219   1222      1
  1442   1220   1221      1
  1443   1221   1223      1
  1444   1222   1223      1
  1445   1223   1225      1
  1446   1224   1227      1
  1447   1224   1517      1
  1448   1225   1226      1
  1449   1225   1227      1
  1450   1226   1230      1
  1451   1227   1232      1
  1452   1228   1231      1
  1453   1228   1283      1
  1454   1228   1579      1
  1455   1229   1230      1
  1456   1229   1285      1
  1457   1230   1233      1
  1458   1232   1233      1
  1459   1232   1234      1
  1460   1233   1236      1
  1461   1234   1586      1
  1462   1235   1285      1
  1463   1237   1593      1
  1464   1238   1239      1
  1465   1238   1240      1
  1466   1238   1594      1
  1467   1240   1241      1
  1468   1240   1599      1
  1469   1241   1243      1
  1470   1242   1244      1
  1471   1243   1245      1
  1472   1243   1247      1
  1473   1244   1245      1
  1474   1245   1246      1
  1475   1246   1297      1
  1476   1247   1248      1
  1477   1247   1604      1
  1478   1248   1251      1
  1479   1248   1606      1
  1480   1250   1251      1
  1481   1251   1254      1
  1482   1252   1253      1
  1483   1253   1609      1
  1484   1254   1256      1
  1485   1258   1259      1
  1486   1259   1260      1
  1487   1259   1614      1
  1488   1260   1261      1
  1489   1261   1262      1
  1490   1262   1263      1
  1491   1263   1265      1
  1492   1264   1265      1
  1493   1265   1266      1
  1494   1266   1267      1
  1495   1267   1318      1
  1496   1267   1626      1
  1497   1268   1269      1
  1498   1269   1271      1
  1499   1270   1273      1
  1500   1270   1324      1
  1501   1270   1327      1
  1502   1271   1274      1
  1503   1271   1275      1
  1504   1272   1273      1
  1505   1273   1276      1
  1506   1275   1278      1
  1507   1276   1277      1
  1508   1276   1279      1
  1509   1278   1280      1
  1510   1278   1637      1
  1511   1279   1280      1
  1512   1279   1281      1
  1513   1280   1283      1
  1514   1283   1286      1
  1515   1284   1285      1
  1516   1284   1287      1
  1517   1286   1287      1
  1518   1286   1288      1
  1519   1287   1290      1
  1520   1288   1289      1
  1521   1288   1645      1
  1522   1289   1290      1
  1523   1289   1343      1
  1524   1290   1291      1
  1525   1291   1292      1
  1526   1292   1293      1
  1527   1292   1351      1
  1528   1294   1654      1
  1529   1295   1296      1
  1530   1295   1660      1
  1531   1296   1297      1
  1532   1296   1300      1
  1533   1297   1299      1
  1534   1298   1300      1
  1535   1300   1661      1
  1536   1301   1667      1
  1537   1302   1303      1
  1538   1302   1367      1
  1539   1302   1667      1
  1540   1303   1304      1
  1541   1303   1305      1
  1542   1305   1368      1
  1543   1308   1670      1
  1544   1309   1310      1
  1545   1310   1311      1
  1546   1311   1312      1
  1547   1313   1314      1
  1548   1314   1315      1
  1549   1315   1317      1
  1550   1315   1318      1
  1551   1316   1317      1
  1552   1316   1390      1
  1553   1317   1320      1
  1554   1318   1319      1
  1555   1319   1320      1
  1556   1319   1685      1
  1557   1320   1387      1
  1558   1321   1323      1
  1559   1322   1324      1
  1560   1323   1324      1
  1561   1324   1328      1
  1562   1325   1326      1
  1563   1325   1328      1
  1564   1325   1689      1
  1565   1326   1329      1
  1566   1326   1690      1
  1567   1328   1331      1
  1568   1329   1330      1
  1569   1329   1392      1
  1570   1330   1332      1
  1571   1330   1395      1
  1572   1331   1332      1
  1573   1331   1333      1
  1574   1331   1334      1
  1575   1332   1335      1
  1576   1336   1337      1
  1577   1337   1339      1
  1578   1337   1698      1
  1579   1338   1341      1
  1580   1339   1401      1
  1581   1340   1341      1
  1582   1341   1342      1
  1583   1342   1343      1
  1584   1342   1345      1
  1585   1343   1700      1
  1586   1344   1346      1
  1587   1345   1346      1
  1588   1345   1347      1
  1589   1346   1348      1
  1590   1346   1407      1
  1591   1347   1349      1
  1592   1348   1352      1
  1593   1348   1702      1
  1594   1349   1350      1
  1595   1350   1408      1
  1596   1351   1354      1
  1597   1352   1355      1
  1598   1352   1708      1
  1599   1353   1355      1
  1600   1355   1356      1
  1601   1356   1357      1
  1602   1356   1361      1
  1603   1357   1358      1
  1604   1357   1710      1
  1605   1358   1360      1
  1606   1358   1362      1
  1607   1359   1362      1
  1608   1361   1363      1
  1609   1361   1419      1
  1610   1362   1364      1
  1611   1364   1365      1
  1612   1366   1423      1
  1613   1367   1368      1
  1614   1367   1722      1
  1615   1368   1369      1
  1616   1369   1370      1
  1617   1369   1371      1
  1618   1371   1372      1
  1619   1372   1423      1
  1620   1373   1376      1
  1621   1374   1375      1
  1622   1374   1377      1
  1623   1375   1378      1
  1624   1376   1380      1
  1625   1376   1728      1
  1626   1377   1379      1
  1627   1381   1382      1
  1628   1381   1735      1
  1629   1382   1383      1
  1630   1382   1384      1
  1631   1384   1385      1
  1632   1386   1387      1
  1633   1387   1742      1
  1634   1388   1390      1
  1635   1390   1391      1
  1636   1392   1393      1
  1637   1392   1749      1
  1638   1393   1394      1
  1639   1393   1397      1
  1640   1394   1395      1
  1641   1394   1396      1
  1642   1396   1399      1
  1643   1397   1398      1
  1644   1398   1400      1
  1645   1398   1758      1
  1646   1399   1400      1
  1647   1400   1402      1
  1648   1401   1404      1
  1649   1404   1406      1
  1650   1405   1407      1
  1651   1405   1761      1
  1652   1405   1762      1
  1653   1406   1407      1
  1654   1406   1408      1
  1655   1408   1412      1
  1656   1410   1412      1
  1657   1411   1413      1
  1658   1411   1766      1
  1659   1412   1414      1
  1660   1413   1414      1
  1661   1413   1415      1
  1662   1414   1416      1
  1663   1415   1417      1
  1664   1415   1770      1
  1665   1418   1777      1
  1666   1419   1420      1
  1667   1420   1422      1
  1668   1421   1422      1
  1669   1422   1424      1
  1670   1423   1424      1
  1671   1424   1425      1
  1672   1424   1427      1
  1673   1427   1428      1
  1674   1429   1430      1
  1675   1430   1431      1
  1676   1431   1432      1
  1677   1431   1492      1
  1678   1434   1437      1
  1679   1435   1439      1
  1680   1435   1789      1
  1681   1436   1437      1
  1682   1436   1441      1
  1683   1437   1440      1
  1684   1439   1442      1
  1685   1439   1443      1
  1686   1440   1505      1
  1687   1440   1851      1
  1688   1441   1444      1
  1689   1442   1445      1
  1690   1443   1446      1
  1691   1443   1796      1
  1692   1444   1447      1
  1693   1444   1505      1
  1694   1445   1446      1
  1695   1446   1448      1
  1696   1446   1449      1
  1697   1447   1451      1
  1698   1449   1452      1
  1699   1450   1451      1
  1700   1450   1453      1
  1701   1450   1509      1
  1702   1451   1454      1
  1703   1453   1456      1
  1704   1453   1512      1
  1705   1454   1460      1
  1706   1455   1457      1
  1707   1455   1458      1
  1708   1456   1459      1
  1709   1458   1459      1
  1710   1458   1462      1
  1711   1459   1807      1
  1712   1460   1461      1
  1713   1460   1462      1
  1714   1462   1464      1
  1715   1463   1465      1
  1716   1463   1807      1
  1717   1464   1465      1
  1718   1464   1466      1
  1719   1466   1467      1
  1720   1466   1520      1
  1721   1467   1870      1
  1722   1469   1471      1
  1723   1470   1472      1
  1724   1471   1472      1
  1725   1471   1473      1
  1726   1472   1474      1
  1727   1473   1475      1
  1728   1473   1531      1
  1729   1474   1476      1
  1730   1475   1476      1
  1731   1475   1477      1
  1732   1476   1478      1
  1733   1477   1479      1
  1734   1477   1537      1
  1735   1478   1479      1
  1736   1479   1480      1
  1737   1480   1481      1
  1738   1482   1829      1
  1739   1483   1485      1
  1740   1484   1486      1
  1741   1485   1487      1
  1742   1486   1487      1
  1743   1486   1488      1
  1744   1488   1489      1
  1745   1489   1551      1
  1746   1490   1491      1
  1747   1490   1492      1
  1748   1491   1493      1
  1749   1493   1498      1
  1750   1493   1842      1
  1751   1494   1496      1
  1752   1495   1496      1
  1753   1496   1558      1
  1754   1497   1498      1
  1755   1497   1562      1
  1756   1498   1500      1
  1757   1499   1501      1
  1758   1500   1502      1
  1759   1500   1847      1
  1760   1501   1503      1
  1761   1503   1504      1
  1762   1503   1507      1
  1763   1505   1509      1
  1764   1506   1507      1
  1765   1506   1567      1
  1766   1506   1573      1
  1767   1507   1510      1
  1768   1508   1509      1
  1769   1510   1511      1
  1770   1511   1513      1
  1771   1512   1513      1
  1772   1512   1861      1
  1773   1513   1514      1
  1774   1515   1516      1
  1775   1516   1517      1
  1776   1516   1518      1
  1777   1518   1519      1
  1778   1518   1520      1
  1779   1518   1522      1
  1780   1520   1523      1
  1781   1521   1524      1
  1782   1521   1582      1
  1783   1521   1584      1
  1784   1525   1526      1
  1785   1526   1527      1
  1786   1526   1528      1
  1787   1526   1529      1
  1788   1528   1530      1
  1789   1528   1589      1
  1790   1529   1532      1
  1791   1529   1533      1
  1792   1530   1534      1
  1793   1530   1594      1
  1794   1532   1820      1
  1795   1534   1535      1
  1796   1535   1537      1
  1797   1536   1538      1
  1798   1538   1541      1
  1799   1538   1602      1
  1800   1539   1542      1
  1801   1540   1542      1
  1802   1541   1543      1
  1803   1541   1886      1
  1804   1542   1543      1
  1805   1542   1544      1
  1806   1543   1548      1
  1807   1544   1545      1
  1808   1544   1547      1
  1809   1546   1549      1
  1810   1548   1549      1
  1811   1548   1887      1
  1812   1549   1551      1
  1813   1550   1552      1
  1814   1551   1554      1
  1815   1552   1553      1
  1816   1552   1555      1
  1817   1553   1611      1
  1818   1554   1894      1
  1819   1556   1557      1
  1820   1556   1558      1
  1821   1557   1560      1
  1822   1557   1617      1
  1823   1558   1561      1
  1824   1559   1902      1
  1825   1560   1561      1
  1826   1560   1563      1
  1827   1561   1565      1
  1828   1562   1564      1
  1829   1562   1902      1
  1830   1563   1566      1
  1831   1564   1567      1
  1832   1564   1908      1
  1833   1565   1566      1
  1834   1566   1568      1
  1835   1569   1571      1
  1836   1571   1572      1
  1837   1571   1630      1
  1838   1572   1574      1
  1839   1573   1574      1
  1840   1574   1913      1
  1841   1575   1576      1
  1842   1576   1577      1
  1843   1576   1635      1
  1844   1577   1578      1
  1845   1577   1579      1
  1846   1578   1581      1
  1847   1579   1637      1
  1848   1580   1582      1
  1849   1581   1920      1
  1850   1582   1868      1
  1851   1582   1920      1
  1852   1583   1585      1
  1853   1584   1585      1
  1854   1585   1586      1
  1855   1586   1588      1
  1856   1587   1593      1
  1857   1588   1590      1
  1858   1588   1594      1
  1859   1589   1590      1
  1860   1589   1592      1
  1861   1590   1595      1
  1862   1591   1595      1
  1863   1591   1925      1
  1864   1593   1596      1
  1865   1595   1597      1
  1866   1596   1597      1
  1867   1596   1655      1
  1868   1597   1598      1
  1869   1598   1601      1
  1870   1598   1656      1
  1871   1600   1601      1
  1872   1600   1602      1
  1873   1600   1929      1
  1874   1600   1931      1
  1875   1601   1930      1
  1876   1602   1603      1
  1877   1603   1604      1
  1878   1605   1658      1
  1879   1606   1607      1
  1880   1606   1663      1
  1881   1607   1608      1
  1882   1607   1609      1
  1883   1608   1610      1
  1884   1609   1611      1
  1885   1610   1611      1
  1886   1610   1938      1
  1887   1612   1613      1
  1888   1612   1614      1
  1889   1613   1673      1
  1890   1614   1615      1
  1891   1615   1616      1
  1892   1615   1618      1
  1893   1616   1673      1
  1894   1616   1677      1
  1895   1617   1618      1
  1896   1618   1620      1
  1897   1619   1621      1
  1898   1620   1622      1
  1899   1620   1946      1
  1900   1621   1623      1
  1901   1621   1677      1
  1902   1621   1679      1
  1903   1622   1624      1
  1904   1622   1677      1
  1905   1624   1683      1
  1906   1624   1951      1
  1907   1625   1628      1
  1908   1626   1627      1
  1909   1627   1631      1
  1910   1627   1686      1
  1911   1628   1629      1
  1912   1628   1631      1
  1913   1629   1630      1
  1914   1630   1957      1
  1915   1631   1632      1
  1916   1631   1633      1
  1917   1633   1636      1
  1918   1633   1693      1
  1919   1634   1635      1
  1920   1634   1957      1
  1921   1634   1961      1
  1922   1636   1638      1
  1923   1637   1641      1
  1924   1638   1639      1
  1925   1638   1641      1
  1926   1639   1696      1
  1927   1640   1642      1
  1928   1641   1643      1
  1929   1642   1644      1
  1930   1642   1966      1
  1931   1643   1644      1
  1932   1643   1645      1
  1933   1644   1646      1
  1934   1645   1647      1
  1935   1646   1647      1
  1936   1646   1973      1
  1937   1647   1648      1
  1938   1648   1649      1
  1939   1648   1650      1
  1940   1649   1651      1
  1941   1649   1977      1
  1942   1650   1652      1
  1943   1650   1654      1
  1944   1651   1652      1
  1945   1651   1706      1
  1946   1653   1654      1
  1947   1653   1655      1
  1948   1655   1656      1
  1949   1656   1657      1
  1950   1657   1658      1
  1951   1657   1660      1
  1952   1658   1984      1
  1953   1659   1985      1
  1954   1660   1662      1
  1955   1660   1663      1
  1956   1661   1662      1
  1957   1661   1718      1
  1958   1662   1664      1
  1959   1663   1666      1
  1960   1664   1665      1
  1961   1664   1668      1
  1962   1665   1720      1
  1963   1665   1990      1
  1964   1666   1668      1
  1965   1666   1669      1
  1966   1667   1668      1
  1967   1670   1672      1
  1968   1671   1672      1
  1969   1671   1674      1
  1970   1672   1675      1
  1971   1673   1674      1
  1972   1674   1998      1
  1973   1675   1676      1
  1974   1675   1732      1
  1975   1676   1678      1
  1976   1677   1678      1
  1977   1678   1680      1
  1978   1680   1681      1
  1979   1680   1682      1
  1980   1680   2007      1
  1981   1681   1684      1
  1982   1681   1739      1
  1983   1684   1685      1
  1984   1684   1742      1
  1985   1685   1686      1
  1986   1686   1688      1
  1987   1687   1743      1
  1988   1690   1691      1
  1989   1690   1749      1
  1990   1691   1694      1
  1991   1691   1747      1
  1992   1692   1693      1
  1993   1692   1695      1
  1994   1693   1696      1
  1995   1694   1695      1
  1996   1694   1754      1
  1997   1695   1697      1
  1998   1696   1697      1
  1999   1698   1757      1
  2000   1699   1700      1
  2001   1700   1701      1
  2002   1701   1702      1
  2003   1702   1703      1
  2004   1703   1704      1
  2005   1703   1763      1
  2006   1704   1707      1
  2007   1704   2036      1
  2008   1705   1706      1
  2009   1706   2037      1
  2010   1706   2042      1
  2011   1707   1772      1
  2012   1707   2041      1
  2013   1708   1711      1
  2014   1708   1772      1
  2015   1709   2041      1
  2016   1710   1711      1
  2017   1710   1713      1
  2018   1711   1714      1
  2019   1712   1716      1
  2020   1712   2046      1
  2021   1713   1716      1
  2022   1713   1718      1
  2023   1714   1715      1
  2024   1714   1775      1
  2025   1715   1717      1
  2026   1715   1719      1
  2027   1715   1773      1
  2028   1716   1720      1
  2029   1718   1722      1
  2030   1719   1781      1
  2031   1719   2053      1
  2032   1720   1721      1
  2033   1720   1723      1
  2034   1722   1723      1
  2035   1723   1725      1
  2036   1724   1726      1
  2037   1726   2056      1
  2038   1728   1730      1
  2039   1729   1731      1
  2040   1729   1732      1
  2041   1729   2060      1
  2042   1730   1731      1
  2043   1730   1733      1
  2044   1731   2064      1
  2045   1732   1733      1
  2046   1733   1735      1
  2047   1734   1736      1
  2048   1735   1740      1
  2049   1736   1738      1
  2050   1737   1739      1
  2051   1737   2005      1
  2052   1739   1740      1
  2053   1740   1741      1
  2054   1740   1742      1
  2055   1743   1747      1
  2056   1743   2075      1
  2057   1744   1745      1
  2058   1745   1748      1
  2059   1747   1750      1
  2060   1748   1751      1
  2061   1748   1752      1
  2062   1749   1752      1
  2063   1750   1752      1
  2064   1750   1753      1
  2065   1755   1757      1
  2066   1756   1758      1
  2067   1758   1759      1
  2068   1759   1761      1
  2069   1760   2089      1
  2070   1761   1762      1
  2071   1764   1765      1
  2072   1764   1766      1
  2073   1765   1768      1
  2074   1766   1770      1
  2075   1767   1768      1
  2076   1767   2099      1
  2077   1768   1769      1
  2078   1769   1771      1
  2079   1769   2100      1
  2080   1770   1771      1
  2081   1771   1772      1
  2082   1774   2107      1
  2083   1775   1776      1
  2084   1776   1777      1
  2085   1777   1780      1
  2086   1778   1779      1
  2087   1778   2107      1
  2088   1778   2112      1
  2089   1779   1780      1
  2090   1782   2112      1
  2091   1784   1786      1
  2092   1784   1840      1
  2093   1784   2118      1
  2094   1785   1787      1
  2095   1788   1789      1
  2096   1789   1792      1
  2097   1790   1791      1
  2098   1790   2129      1
  2099   1791   1792      1
  2100   1791   1795      1
  2101   1792   1796      1
  2102   1793   1795      1
  2103   1793   2131      1
  2104   1794   1851      1
  2105   1795   1798      1
  2106   1796   1797      1
  2107   1797   1798      1
  2108   1798   1800      1
  2109   1801   1804      1
  2110   1802   1806      1
  2111   1803   1804      1
  2112   1803   1806      1
  2113   1803   2141      1
  2114   1804   1808      1
  2115   1805   1807      1
  2116   1806   1809      1
  2117   1809   1810      1
  2118   1809   1869      1
  2119   1810   1874      1
  2120   1811   1812      1
  2121   1812   1813      1
  2122   1812   1814      1
  2123   1813   2145      1
  2124   1813   2148      1
  2125   1815   1816      1
  2126   1815   1874      1
  2127   1815   2149      1
  2128   1816   1819      1
  2129   1816   1877      1
  2130   1818   1820      1
  2131   1819   1821      1
  2132   1820   1823      1
  2133   1821   1822      1
  2134   1821   1824      1
  2135   1823   1824      1
  2136   1823   1880      1
  2137   1824   1825      1
  2138   1825   1829      1
  2139   1825   1830      1
  2140   1826   1828      1
  2141   1827   1883      1
  2142   1828   1831      1
  2143   1828   2160      1
  2144   1829   1830      1
  2145   1831   1833      1
  2146   1832   1890      1
  2147   1833   1834      1
  2148   1835   1836      1
  2149   1835   1837      1
  2150   1836   1838      1
  2151   1836   1839      1
  2152   1837   2165      1
  2153   1841   1842      1
  2154   1842   1844      1
  2155   1843   1844      1
  2156   1843   1845      1
  2157   1843   2171      1
  2158   1844   1846      1
  2159   1845   1848      1
  2160   1845   2177      1
  2161   1845   2181      1
  2162   1846   1847      1
  2163   1846   1849      1
  2164   1847   1851      1
  2165   1848   1849      1
  2166   1848   1850      1
  2167   1849   1852      1
  2168   1850   1854      1
  2169   1850   2244      1
  2170   1852   1853      1
  2171   1852   1854      1
  2172   1854   1855      1
  2173   1856   1857      1
  2174   1857   1858      1
  2175   1857   2187      1
  2176   1858   1859      1
  2177   1858   1860      1
  2178   1859   1861      1
  2179   1860   1864      1
  2180   1860   1914      1
  2181   1861   1862      1
  2182   1863   2191      1
  2183   1864   1865      1
  2184   1864   1866      1
  2185   1865   2189      1
  2186   1865   2196      1
  2187   1866   1868      1
  2188   1867   1869      1
  2189   1868   1871      1
  2190   1869   1870      1
  2191   1869   1873      1
  2192   1872   2200      1
  2193   1873   1874      1
  2194   1873   1875      1
  2195   1876   1924      1
  2196   1878   1879      1
  2197   1878   2209      1
  2198   1879   1881      1
  2199   1879   1882      1
  2200   1880   1884      1
  2201   1882   1883      1
  2202   1882   1884      1
  2203   1883   2212      1
  2204   1884   1886      1
  2205   1885   1886      1
  2206   1885   1933      1
  2207   1885   1935      1
  2208   1886   1887      1
  2209   1887   1891      1
  2210   1888   1891      1
  2211   1889   1890      1
  2212   1889   1892      1
  2213   1889   2221      1
  2214   1890   1891      1
  2215   1892   1893      1
  2216   1892   2222      1
  2217   1893   1895      1
  2218   1893   1936      1
  2219   1896   1897      1
  2220   1896   1898      1
  2221   1897   1899      1
  2222   1897   1940      1
  2223   1898   1900      1
  2224   1898   2233      1
  2225   1899   1902      1
  2226   1900   1903      1
  2227   1901   1903      1
  2228   1901   1946      1
  2229   1903   1905      1
  2230   1904   1906      1
  2231   1905   1907      1
  2232   1905   1950      1
  2233   1906   1907      1
  2234   1906   2244      1
  2235   1907   1910      1
  2236   1909   1910      1
  2237   1909   1911      1
  2238   1909   1950      1
  2239   1912   1957      1
  2240   1913   1914      1
  2241   1913   1915      1
  2242   1916   1917      1
  2243   1917   1918      1
  2244   1917   2254      1
  2245   1918   1921      1
  2246   1919   1922      1
  2247   1919   1967      1
  2248   1919   2255      1
  2249   1920   1923      1
  2250   1921   1922      1
  2251   1921   1923      1
  2252   1922   1972      1
  2253   1923   1925      1
  2254   1924   1926      1
  2255   1924   2257      1
  2256   1926   1927      1
  2257   1927   1928      1
  2258   1927   2268      1
  2259   1930   1931      1
  2260   1930   1932      1
  2261   1931   1933      1
  2262   1932   1934      1
  2263   1932   1984      1
  2264   1934   1986      1
  2265   1935   1936      1
  2266   1935   2222      1
  2267   1936   1937      1
  2268   1937   1939      1
  2269   1939   2287      1
  2270   1941   1943      1
  2271   1942   1943      1
  2272   1944   2233      1
  2273   1945   2295      1
  2274   1946   1947      1
  2275   1947   1950      1
  2276   1947   1951      1
  2277   1948   1949      1
  2278   1948   2295      1
  2279   1948   2304      1
  2280   1949   1952      1
  2281   1951   1952      1
  2282   1952   1953      1
  2283   1953   2010      1
  2284   1953   2013      1
  2285   1954   2309      1
  2286   1955   1957      1
  2287   1956   1958      1
  2288   1958   2016      1
  2289   1958   2018      1
  2290   1959   1960      1
  2291   1960   1962      1
  2292   1960   1963      1
  2293   1961   1962      1
  2294   1962   1964      1
  2295   1963   1965      1
  2296   1963   2320      1
  2297   1964   1966      1
  2298   1964   1967      1
  2299   1965   1967      1
  2300   1965   2325      1
  2301   1968   1969      1
  2302   1969   1971      1
  2303   1969   2028      1
  2304   1969   2325      1
  2305   1970   1972      1
  2306   1970   1973      1
  2307   1971   1976      1
  2308   1971   2331      1
  2309   1972   1975      1
  2310   1973   1977      1
  2311   1974   1976      1
  2312   1974   1977      1
  2313   1974   2033      1
  2314   1976   1979      1
  2315   1977   1980      1
  2316   1978   1980      1
  2317   1979   1981      1
  2318   1980   1982      1
  2319   1981   2339      1
  2320   1982   1983      1
  2321   1983   1984      1
  2322   1983   1985      1
  2323   1985   1987      1
  2324   1985   2046      1
  2325   1986   1988      1
  2326   1986   2344      1
  2327   1987   1989      1
  2328   1987   1990      1
  2329   1988   1989      1
  2330   1988   1992      1
  2331   1989   1991      1
  2332   1991   2051      1
  2333   1991   2351      1
  2334   1992   1993      1
  2335   1993   1995      1
  2336   1994   2353      1
  2337   1994   2354      1
  2338   1996   1998      1
  2339   1997   2000      1
  2340   1997   2058      1
  2341   1997   2364      1
  2342   1998   1999      1
  2343   1998   2001      1
  2344   2000   2001      1
  2345   2000   2067      1
  2346   2001   2003      1
  2347   2002   2006      1
  2348   2003   2006      1
  2349   2003   2007      1
  2350   2004   2006      1
  2351   2005   2007      1
  2352   2005   2067      1
  2353   2006   2010      1
  2354   2008   2009      1
  2355   2008   2071      1
  2356   2009   2011      1
  2357   2009   2374      1
  2358   2010   2011      1
  2359   2011   2012      1
  2360   2012   2013      1
  2361   2012   2014      1
  2362   2013   2016      1
  2363   2014   2015      1
  2364   2014   2384      1
  2365   2016   2017      1
  2366   2017   2019      1
  2367   2017   2384      1
  2368   2018   2020      1
  2369   2019   2021      1
  2370   2020   2021      1
  2371   2020   2022      1
  2372   2021   2023      1
  2373   2023   2024      1
  2374   2023   2025      1
  2375   2023   2027      1
  2376   2026   2088      1
  2377   2027   2028      1
  2378   2027   2394      1
  2379   2028   2029      1
  2380   2029   2033      1
  2381   2029   2035      1
  2382   2030   2032      1
  2383   2030   2095      1
  2384   2030   2398      1
  2385   2031   2033      1
  2386   2032   2034      1
  2387   2032   2035      1
  2388   2034   2036      1
  2389   2034   2096      1
  2390   2035   2400      1
  2391   2036   2038      1
  2392   2038   2039      1
  2393   2038   2041      1
  2394   2039   2101      1
  2395   2040   2045      1
  2396   2041   2044      1
  2397   2042   2043      1
  2398   2042   2046      1
  2399   2043   2045      1
  2400   2045   2047      1
  2401   2045   2339      1
  2402   2047   2048      1
  2403   2047   2411      1
  2404   2047   2413      1
  2405   2048   2050      1
  2406   2048   2051      1
  2407   2049   2050      1
  2408   2049   2416      1
  2409   2050   2052      1
  2410   2051   2055      1
  2411   2052   2053      1
  2412   2052   2054      1
  2413   2053   2113      1
  2414   2054   2055      1
  2415   2054   2056      1
  2416   2055   2057      1
  2417   2058   2117      1
  2418   2059   2061      1
  2419   2059   2063      1
  2420   2062   2064      1
  2421   2063   2064      1
  2422   2063   2065      1
  2423   2065   2067      1
  2424   2065   2068      1
  2425   2066   2069      1
  2426   2068   2069      1
  2427   2068   2071      1
  2428   2069   2070      1
  2429   2069   2428      1
  2430   2071   2072      1
  2431   2072   2073      1
  2432   2072   2433      1
  2433   2073   2074      1
  2434   2074   2075      1
  2435   2074   2076      1
  2436   2076   2077      1
  2437   2076   2078      1
  2438   2077   2436      1
  2439   2078   2080      1
  2440   2079   2441      1
  2441   2080   2083      1
  2442   2081   2082      1
  2443   2081   2441      1
  2444   2081   2443      1
  2445   2083   2085      1
  2446   2084   2086      1
  2447   2085   2086      1
  2448   2085   2087      1
  2449   2086   2088      1
  2450   2087   2089      1
  2451   2087   2090      1
  2452   2088   2090      1
  2453   2089   2091      1
  2454   2090   2094      1
  2455   2091   2092      1
  2456   2092   2093      1
  2457   2092   2094      1
  2458   2093   2449      1
  2459   2094   2095      1
  2460   2094   2097      1
  2461   2095   2449      1
  2462   2098   2100      1
  2463   2099   2100      1
  2464   2100   2103      1
  2465   2101   2102      1
  2466   2102   2460      1
  2467   2102   2461      1
  2468   2104   2105      1
  2469   2104   2462      1
  2470   2105   2109      1
  2471   2105   2464      1
  2472   2106   2108      1
  2473   2107   2108      1
  2474   2108   2110      1
  2475   2109   2110      1
  2476   2110   2111      1
  2477   2111   2112      1
  2478   2111   2114      1
  2479   2114   2116      1
  2480   2115   2116      1
  2481   2115   2472      1
  2482   2115   2478      1
  2483   2118   2119      1
  2484   2119   2121      1
  2485   2120   2121      1
  2486   2122   2123      1
  2487   2123   2125      1
  2488   2123   2174      1
  2489   2124   2126      1
  2490   2125   2127      1
  2491   2125   2130      1
  2492   2126   2128      1
  2493   2127   2128      1
  2494   2127   2131      1
  2495   2128   2129      1
  2496   2130   2132      1
  2497   2130   2179      1
  2498   2131   2180      1
  2499   2134   2135      1
  2500   2135   2136      1
  2501   2135   2137      1
  2502   2136   2185      1
  2503   2137   2138      1
  2504   2137   2139      1
  2505   2140   2141      1
  2506   2141   2191      1
  2507   2142   2144      1
  2508   2142   2198      1
  2509   2143   2145      1
  2510   2145   2146      1
  2511   2146   2147      1
  2512   2147   2148      1
  2513   2147   2150      1
  2514   2148   2149      1
  2515   2149   2152      1
  2516   2150   2151      1
  2517   2151   2152      1
  2518   2152   2153      1
  2519   2153   2155      1
  2520   2153   2210      1
  2521   2154   2155      1
  2522   2155   2156      1
  2523   2155   2157      1
  2524   2157   2158      1
  2525   2157   2212      1
  2526   2158   2160      1
  2527   2159   2218      1
  2528   2160   2162      1
  2529   2161   2162      1
  2530   2161   2164      1
  2531   2162   2165      1
  2532   2163   2223      1
  2533   2164   2166      1
  2534   2165   2167      1
  2535   2166   2167      1
  2536   2168   2170      1
  2537   2168   2172      1
  2538   2169   2173      1
  2539   2169   2232      1
  2540   2170   2174      1
  2541   2171   2173      1
  2542   2173   2177      1
  2543   2174   2176      1
  2544   2176   2178      1
  2545   2177   2242      1
  2546   2180   2181      1
  2547   2181   2182      1
  2548   2183   2184      1
  2549   2184   2185      1
  2550   2184   2186      1
  2551   2184   2187      1
  2552   2185   2188      1
  2553   2186   2190      1
  2554   2187   2189      1
  2555   2188   2191      1
  2556   2188   2193      1
  2557   2189   2192      1
  2558   2190   2193      1
  2559   2190   2194      1
  2560   2193   2195      1
  2561   2194   2197      1
  2562   2195   2198      1
  2563   2196   2200      1
  2564   2198   2199      1
  2565   2200   2202      1
  2566   2201   2202      1
  2567   2202   2203      1
  2568   2202   2257      1
  2569   2203   2204      1
  2570   2204   2206      1
  2571   2205   2208      1
  2572   2206   2207      1
  2573   2206   2209      1
  2574   2207   2211      1
  2575   2207   2271      1
  2576   2208   2211      1
  2577   2209   2210      1
  2578   2210   2212      1
  2579   2213   2216      1
  2580   2214   2215      1
  2581   2214   2218      1
  2582   2215   2216      1
  2583   2216   2217      1
  2584   2216   2278      1
  2585   2218   2219      1
  2586   2220   2221      1
  2587   2221   2223      1
  2588   2222   2281      1
  2589   2223   2225      1
  2590   2224   2225      1
  2591   2225   2227      1
  2592   2226   2228      1
  2593   2227   2228      1
  2594   2229   2232      1
  2595   2230   2357      1
  2596   2231   2233      1
  2597   2232   2235      1
  2598   2233   2239      1
  2599   2234   2238      1
  2600   2236   2237      1
  2601   2237   2238      1
  2602   2237   2239      1
  2603   2237   2241      1
  2604   2238   2294      1
  2605   2239   2297      1
  2606   2240   2241      1
  2607   2240   2242      1
  2608   2241   2243      1
  2609   2242   2244      1
  2610   2243   2247      1
  2611   2243   2300      1
  2612   2244   2245      1
  2613   2246   2247      1
  2614   2247   2248      1
  2615   2250   2252      1
  2616   2251   2252      1
  2617   2252   2253      1
  2618   2253   2254      1
  2619   2254   2255      1
  2620   2255   2324      1
  2621   2256   2257      1
  2622   2257   2260      1
  2623   2258   2259      1
  2624   2258   2262      1
  2625   2258   2326      1
  2626   2261   2262      1
  2627   2262   2264      1
  2628   2263   2266      1
  2629   2264   2266      1
  2630   2264   2267      1
  2631   2265   2267      1
  2632   2266   2269      1
  2633   2267   2270      1
  2634   2267   2336      1
  2635   2268   2270      1
  2636   2268   2271      1
  2637   2270   2273      1
  2638   2271   2274      1
  2639   2273   2274      1
  2640   2273   2275      1
  2641   2274   2278      1
  2642   2275   2277      1
  2643   2276   2344      1
  2644   2278   2281      1
  2645   2279   2282      1
  2646   2281   2282      1
  2647   2282   2285      1
  2648   2283   2284      1
  2649   2283   2350      1
  2650   2284   2286      1
  2651   2285   2287      1
  2652   2289   2290      1
  2653   2289   2357      1
  2654   2290   2291      1
  2655   2291   2292      1
  2656   2291   2293      1
  2657   2292   2296      1
  2658   2292   2369      1
  2659   2293   2294      1
  2660   2293   2298      1
  2661   2294   2299      1
  2662   2295   2296      1
  2663   2295   2297      1
  2664   2296   2302      1
  2665   2297   2300      1
  2666   2298   2301      1
  2667   2298   2303      1
  2668   2299   2300      1
  2669   2299   2303      1
  2670   2302   2304      1
  2671   2302   2372      1
  2672   2303   2305      1
  2673   2304   2306      1
  2674   2305   2310      1
  2675   2306   2308      1
  2676   2306   2309      1
  2677   2307   2308      1
  2678   2307   2310      1
  2679   2307   2379      1
  2680   2308   2311      1
  2681   2308   2378      1
  2682   2309   2312      1
  2683   2310   2313      1
  2684   2312   2313      1
  2685   2312   2314      1
  2686   2313   2317      1
  2687   2315   2316      1
  2688   2316   2318      1
  2689   2316   2320      1
  2690   2317   2319      1
  2691   2317   2321      1
  2692   2318   2319      1
  2693   2318   2390      1
  2694   2320   2322      1
  2695   2321   2323      1
  2696   2323   2324      1
  2697   2325   2327      1
  2698   2326   2328      1
  2699   2327   2329      1
  2700   2327   2331      1
  2701   2328   2329      1
  2702   2329   2330      1
  2703   2330   2333      1
  2704   2330   2395      1
  2705   2331   2332      1
  2706   2333   2335      1
  2707   2333   2401      1
  2708   2337   2338      1
  2709   2338   2341      1
  2710   2339   2343      1
  2711   2340   2341      1
  2712   2341   2342      1
  2713   2342   2343      1
  2714   2342   2344      1
  2715   2344   2348      1
  2716   2345   2346      1
  2717   2345   2347      1
  2718   2346   2414      1
  2719   2346   2417      1
  2720   2347   2348      1
  2721   2347   2349      1
  2722   2348   2350      1
  2723   2349   2351      1
  2724   2349   2417      1
  2725   2350   2352      1
  2726   2351   2354      1
  2727   2354   2356      1
  2728   2358   2364      1
  2729   2359   2360      1
  2730   2359   2362      1
  2731   2361   2421      1
  2732   2362   2365      1
  2733   2363   2364      1
  2734   2364   2366      1
  2735   2365   2367      1
  2736   2366   2368      1
  2737   2367   2369      1
  2738   2368   2370      1
  2739   2369   2372      1
  2740   2370   2427      1
  2741   2372   2375      1
  2742   2373   2376      1
  2743   2375   2376      1
  2744   2375   2378      1
  2745   2376   2377      1
  2746   2377   2381      1
  2747   2378   2382      1
  2748   2379   2381      1
  2749   2380   2383      1
  2750   2382   2384      1
  2751   2383   2387      1
  2752   2383   2437      1
  2753   2384   2385      1
  2754   2386   2387      1
  2755   2387   2389      1
  2756   2390   2391      1
  2757   2391   2392      1
  2758   2392   2393      1
  2759   2393   2394      1
  2760   2393   2395      1
  2761   2394   2396      1
  2762   2395   2399      1
  2763   2396   2398      1
  2764   2396   2399      1
  2765   2396   2400      1
  2766   2397   2450      1
  2767   2398   2450      1
  2768   2399   2401      1
  2769   2400   2402      1
  2770   2401   2403      1
  2771   2402   2403      1
  2772   2402   2405      1
  2773   2403   2406      1
  2774   2404   2406      1
  2775   2406   2407      1
  2776   2406   2408      1
  2777   2407   2409      1
  2778   2407   2458      1
  2779   2409   2410      1
  2780   2409   2463      1
  2781   2410   2412      1
  2782   2410   2415      1
  2783   2412   2414      1
  2784   2416   2465      1
  2785   2416   2467      1
  2786   2417   2419      1
  2787   2418   2419      1
  2788   2419   2420      1
  2789   2421   2423      1
  2790   2422   2423      1
  2791   2422   2424      1
  2792   2423   2426      1
  2793   2424   2425      1
  2794   2426   2427      1
  2795   2427   2431      1
  2796   2428   2429      1
  2797   2429   2430      1
  2798   2429   2433      1
  2799   2430   2431      1
  2800   2432   2433      1
  2801   2433   2434      1
  2802   2434   2435      1
  2803   2434   2436      1
  2804   2435   2437      1
  2805   2437   2438      1
  2806   2438   2439      1
  2807   2438   2441      1
  2808   2439   2440      1
  2809   2439   2443      1
  2810   2440   2442      1
  2811   2445   2446      1
  2812   2446   2447      1
  2813   2447   2448      1
  2814   2448   2452      1
  2815   2450   2455      1
  2816   2451   2452      1
  2817   2451   2454      1
  2818   2452   2453      1
  2819   2452   2456      1
  2820   2453   2455      1
  2821   2453   2457      1
  2822   2454   2455      1
  2823   2455   2458      1
  2824   2456   2459      1
  2825   2457   2460      1
  2826   2458   2461      1
  2827   2460   2462      1
  2828   2461   2463      1
  2829   2463   2465      1
  2830   2464   2465      1
  2831   2466   2467      1
  2832   2466   2468      1
  2833   2466   2471      1
  2834   2467   2473      1
  2835   2468   2469      1
  2836   2468   2474      1
  2837   2469   2470      1
  2838   2469   2472      1
  2839   2471   2475      1
  2840   2473   2476      1
  2841   2474   2477      1
  2842   2475   2477      1
  2843   2479   2480     du
  2844   2480   2481     du
  2845   2481   2482     du
  2846   2482   2479     du
  2847   2483   2484     du
  2848   2484   2485     du
  2849   2485   2486     du
  2850   2486   2483     du
  2851   2482   2486     du
  2852   2483   2479     du
  2853   2481   2485     du
  2854   2484   2480     du
