@<TRIPOS>MOLECULE
LAMMPS data file via write_data, version 29 Oct 2020, timestep = 100 > lmp2SYBYLmol2 v3.0 / 24 May 2023 w/remove_PBC_bonds=True
  2670 1543    0    0    0
SMALL
NO_CHARGES
****
Energy = 0

@<TRIPOS>ATOM
      1 C          -14.7789   -10.7815   -13.0343 C      88     f88    -0.0021
      2 H          -14.6475   -12.0664   -15.3840 H       0      f0     0.0309
      3 C          -13.7336   -12.2940   -11.6167 C      88     f88    -0.0270
      4 C          -13.4769   -11.1434   -12.1787 C      88     f88     0.0034
      5 C          -12.9822   -12.6747   -15.3038 C      33     f33    -0.0080
      6 C          -12.3118   -13.1165   -14.1915 C       0      f0    -0.0031
      7 C          -11.5872   -13.3454   -13.0841 C       0      f0    -0.0182
      8 C          -10.2524   -13.6341   -12.5533 C       0      f0    -0.0194
      9 H           -9.3438   -10.4799   -14.0716 H       0      f0     0.0212
     10 H           -9.6421   -13.7283   -15.2948 H       0      f0     0.0401
     11 H           -9.4966   -13.7879   -13.3544 H       0      f0     0.0446
     12 C           -8.3294   -10.7245   -13.8274 C       0      f0    -0.0345
     13 H           -7.4364   -11.0812   -14.6263 H       0      f0     0.0276
     14 H           -4.9854   -12.5707    15.4785 H       0      f0     0.0339
     15 C           -4.7582   -11.5054    15.5672 C       0      f0    -0.0261
     16 H           -3.5827   -12.1423   -12.7163 H       0      f0     0.0233
     17 H           -3.1085   -13.5626   -14.9709 H       0      f0     0.0263
     18 H           -2.7721   -10.6886   -13.8862 H       0      f0     0.0192
     19 C           -2.7567   -12.9350   -12.8155 C       0      f0    -0.0182
     20 C           -2.5086   -13.7653   -11.9810 C       0      f0     0.0058
     21 C           -2.3953   -13.1385   -14.2320 C       0      f0    -0.0202
     22 C           -0.9780   -13.2748   -14.6050 C       0      f0     0.0203
     23 C           -0.2838   -10.5068   -11.0392 C       4      f4    -0.0126
     24 H           -0.3815   -11.4237   -15.3267 H       0      f0     0.0285
     25 C            0.1845   -12.2807   -14.8479 C       0      f0    -0.0186
     26 H            0.7412   -10.5748   -11.5997 H       0      f0     0.0097
     27 H            1.5175   -11.7254   -13.0750 H       0      f0     0.0118
     28 C            1.3646   -13.7226   -11.8353 C       0      f0     0.0030
     29 C            1.6948   -12.1160   -15.0200 C      14     f14     0.0250
     30 C            2.1217   -13.8834   -12.9995 C       0      f0    -0.0284
     31 C            2.1478   -12.3610   -13.5704 C      14     f14     0.0049
     32 C            3.5772   -11.8135   -13.8175 C      14     f14     0.0120
     33 C            4.2531   -11.6923   -15.1278 C      14     f14     0.0346
     34 C            4.3468   -11.2443   -12.6643 C      14     f14    -0.0085
     35 C            5.6068   -11.1119   -14.7962 C      14     f14    -0.0246
     36 C            5.6678   -11.0551   -12.3810 C      14     f14    -0.0199
     37 C            6.3115   -11.1270   -13.6813 C      14     f14    -0.0083
     38 H            7.2929   -10.5867   -13.9413 H       0      f0     0.0154
     39 H            7.3487   -12.7799   -11.8831 H       0      f0     0.0197
     40 C            9.5844   -10.7705   -15.1513 C       0      f0     0.0017
     41 C           10.9140   -11.9342   -11.9337 C       0      f0    -0.0494
     42 C           11.0775   -12.7516   -15.1051 C       0      f0    -0.0157
     43 C           11.1405   -13.6817   -14.2938 C       0      f0    -0.0019
     44 C           11.1295   -10.8804   -12.4853 C       0      f0     0.0316
     45 H           12.1064   -12.9112    15.5600 H       0      f0     0.0211
     46 H           14.2003   -13.3425   -15.0401 H       0      f0     0.0250
     47 H           13.5454   -11.4391   -15.3418 H       0      f0     0.0557
     48 C           14.2412   -13.7780   -11.2656 C       0      f0    -0.0141
     49 C           14.3789   -11.9446   -13.3081 C      88     f88     0.0100
     50 C           14.3335   -12.2137   -14.8999 C       0      f0    -0.0585
     51 C           14.8908   -12.8425   -12.2279 C      88     f88    -0.0012
     52 C          -14.6476    -6.8003   -14.9982 C       0      f0    -0.0038
     53 H          -14.0569    -9.2631   -14.0049 H       0      f0     0.0182
     54 C          -13.2238    -6.4264   -15.4778 C       0      f0    -0.0058
     55 C          -12.4795   -10.0944   -11.5114 C       0      f0    -0.0135
     56 H          -11.6355    -9.8654   -12.3525 H       0      f0     0.0166
     57 C          -10.7904    -8.1861   -15.5226 C       9      f9    -0.0010
     58 C          -10.7562    -6.8445   -15.0464 C       9      f9    -0.0050
     59 H           -9.0156    -8.8242   -15.0145 H       0      f0     0.0135
     60 C           -8.2633   -10.2955   -12.4660 C       0      f0     0.0032
     61 C           -7.1872    -9.9192   -11.9674 C       0      f0    -0.0016
     62 H           -6.1392    -8.1627   -13.5503 H       0      f0    -0.0028
     63 C           -6.2914    -9.3575   -11.0617 C       0      f0    -0.0295
     64 H           -5.7283   -10.0017   -15.1743 H       0      f0     0.0145
     65 C           -5.1595    -7.7910   -13.5281 C      89     f89     0.1682
     66 O           -4.9067    -6.5548   -12.5046 O      89     f89    -0.4664
     67 C           -4.6683   -10.1731   -14.9618 C       0      f0    -0.0070
     68 C           -4.8672    -7.2199   -15.0320 C       0      f0    -0.0018
     69 C           -4.1023    -8.8164   -13.2322 C      89     f89    -0.0209
     70 C           -3.8957   -10.0677   -13.8070 C       0      f0    -0.0119
     71 C           -3.8297    -7.3310   -11.5895 C      89     f89     0.1952
     72 C           -3.3418    -8.4612   -12.2921 C      89     f89    -0.0339
     73 C           -3.4351    -6.8466   -15.1542 C       0      f0     0.0116
     74 C           -2.4941    -9.5149   -11.4313 C       4      f4     0.0008
     75 C           -2.1746    -7.5962   -14.7380 C       0      f0     0.0177
     76 H           -2.0066    -8.6865   -14.1161 H       0      f0     0.0225
     77 C           -1.2937    -9.8082   -11.9362 C       4      f4    -0.0211
     78 C           -0.8590    -6.9188   -14.3513 C       0      f0    -0.0237
     79 H           -1.1361    -9.4639   -13.1153 H       0      f0     0.0129
     80 C            0.1242    -7.7261   -14.9524 C       0      f0     0.0141
     81 C            0.2655    -6.7802   -11.4952 C       0      f0    -0.0369
     82 H            0.9500    -7.6041   -12.0487 H       0      f0     0.0111
     83 C            2.4237    -8.1274   -15.0078 C       0      f0    -0.0122
     84 C            3.4322    -7.8624   -14.5913 C       0      f0    -0.0012
     85 C            4.7905    -6.7603   -12.2498 C       0      f0    -0.0436
     86 C            4.9502    -7.9362   -14.0276 C       0      f0    -0.0259
     87 C            5.0507    -6.4795   -13.6046 C       0      f0     0.0120
     88 H            5.2127    -8.8483   -13.7581 H       0      f0     0.0215
     89 H            5.9347   -10.4344   -11.4711 H       0      f0     0.0197
     90 C            6.8527    -8.3136   -15.2702 C      34     f34    -0.0143
     91 H            6.9062    -6.8677   -14.1276 H       0      f0     0.0264
     92 C            7.8806    -7.6125   -12.2390 C       0      f0    -0.0054
     93 C            7.8510    -6.2343   -14.3978 C       0      f0    -0.0254
     94 C            7.9758    -6.1909   -12.8088 C       0      f0    -0.0451
     95 H            8.6318    -6.8745   -14.8027 H       0      f0     0.0221
     96 H            8.5374    -9.7179   -11.4001 H       0      f0     0.0248
     97 C            9.1702    -9.5871   -14.7226 C       0      f0    -0.0231
     98 H            9.1735    -8.8805   -13.7336 H       0      f0     0.0173
     99 C           10.9675    -6.4306   -11.8669 C      35     f35    -0.0094
    100 C           11.0500    -7.8572   -11.5310 C      35     f35     0.0026
    101 C           11.6309    -9.6616   -12.6398 C       0      f0    -0.0084
    102 C           11.6854    -7.8069   -15.2853 C       0      f0    -0.0193
    103 C           11.9359    -8.3758   -12.8179 C       0      f0    -0.0029
    104 C           12.4542    -8.3867   -14.1350 C       0      f0    -0.0009
    105 C           13.8665    -8.8945   -14.6351 C       0      f0     0.0218
    106 C           14.7382    -8.1197    15.4586 C       0      f0    -0.0355
    107 C           14.7610    -9.4884   -13.5405 C       0      f0    -0.0205
    108 C          -14.7472    -2.1200   -15.4648 C       0      f0    -0.0350
    109 H          -14.7637    -4.5274   -12.4277 H       0      f0     0.0191
    110 C          -11.9270    -2.7948   -13.0739 C      90     f90     0.0008
    111 C          -11.8982    -6.0088   -14.8141 C       9      f9    -0.0074
    112 C          -12.1409    -4.2558   -12.7987 C      90     f90    -0.0065
    113 C          -11.5738    -4.7460   -14.2456 C       9      f9    -0.0016
    114 C          -11.1757    -4.6801   -11.7029 C      90     f90    -0.0113
    115 H          -10.9895    -2.9565    15.3681 H       0      f0     0.0354
    116 C          -10.7340    -3.9294   -15.1911 C       9      f9    -0.0193
    117 H          -11.4397    -5.7688   -11.4143 H       0      f0     0.0275
    118 C          -10.5138    -2.3071   -12.3934 C      90     f90     0.0035
    119 C          -10.1851    -3.4841   -11.6168 C      90     f90     0.0056
    120 C           -9.5161    -6.0916   -15.4394 C       9      f9     0.0033
    121 C           -6.2416    -2.4471   -14.8079 C       0      f0     0.0012
    122 C           -6.2194    -3.2224   -13.5565 C       0      f0     0.0110
    123 C           -4.5850    -3.7208   -13.3795 C       0      f0     0.0322
    124 C           -3.6170    -3.5450   -12.2312 C       0      f0     0.0084
    125 C           -3.7063    -3.9138   -14.4859 C       0      f0     0.0031
    126 C           -3.3985    -2.2584   -12.0552 C       0      f0    -0.0023
    127 C           -2.7491    -4.7536   -11.4519 C       0      f0     0.0208
    128 C           -2.3758    -3.9793   -14.9741 C       0      f0    -0.0265
    129 H           -1.8137    -3.7064   -14.0177 H       0      f0     0.0156
    130 C           -1.3847    -4.7020   -11.4880 C       0      f0     0.0269
    131 H           -0.6666    -5.7882   -14.1921 H       0      f0     0.0180
    132 C           -0.1561    -5.4283   -11.7455 C       0      f0     0.0295
    133 C            0.8174    -4.1674   -11.8752 C       0      f0    -0.0006
    134 C            0.8960    -3.5561   -13.1858 C       0      f0    -0.0200
    135 C            1.1128    -2.7341   -14.0952 C       0      f0     0.0074
    136 C            2.5260    -2.3451   -14.6545 C       0      f0    -0.0226
    137 C            2.7957    -2.8135   -11.5672 C       0      f0    -0.0066
    138 C            3.6803    -1.8808   -12.1247 C       0      f0    -0.0274
    139 C            3.5754    -2.1186   -13.7518 C       0      f0     0.0039
    140 C            4.1487    -5.0570   -15.2574 C       0      f0    -0.0028
    141 H            4.5158    -4.0317   -11.7749 H       0      f0     0.0275
    142 C            5.0873    -4.6046   -11.0466 C       0      f0    -0.0090
    143 C            5.1671    -5.2663   -14.6105 C       0      f0    -0.0048
    144 C            6.2953    -4.2512   -14.8231 C       0      f0     0.0042
    145 C            6.4736    -3.0889   -13.9213 C       0      f0     0.0007
    146 H            6.8600    -5.1722   -11.9857 H       0      f0    -0.0024
    147 C            7.6668    -5.0009   -15.3013 C       0      f0     0.0004
    148 C            7.8748    -5.2200   -11.5174 C       0      f0     0.2011
    149 C            7.7599    -2.7305   -13.4403 C       0      f0    -0.0075
    150 H            8.7656    -4.4755   -11.9704 H       0      f0     0.0141
    151 C            9.1607    -2.6235   -13.4414 C       0      f0    -0.0213
    152 C            9.9824    -2.0516   -12.2300 C       0      f0     0.0126
    153 H           10.5629    -6.0693   -12.7254 H       0      f0     0.0210
    154 C           11.4967    -2.1919   -12.5047 C       0      f0    -0.0008
    155 C           12.2147    -5.4765   -11.7282 C      35     f35     0.0021
    156 H           12.1215    -5.5977   -15.1362 H       0      f0     0.0191
    157 C           12.1724    -3.3795   -12.6160 C       0      f0    -0.0029
    158 C           12.8373    -4.4879   -12.6594 C       2      f2    -0.0047
    159 C           14.3060    -5.2179   -12.7384 C       2      f2    -0.0208
    160 C           14.2672    -6.0286   -11.4105 C       2      f2     0.0019
    161 H           14.8862    -2.9505   -14.7365 H       0      f0     0.0156
    162 C           14.7428    -6.2083   -14.0347 C       0      f0    -0.0113
    163 C          -13.8552     1.9527   -12.2574 C       0      f0     0.0035
    164 C          -13.8900    -1.4159   -14.4628 C       0      f0     0.0050
    165 C          -13.2676    -1.0956   -12.0531 C      36     f36    -0.0021
    166 C          -13.2625    -1.9580   -13.3154 C      36     f36    -0.0049
    167 C          -12.9356    -0.5169   -14.8895 C       0      f0     0.0060
    168 C          -12.8189     1.1708   -11.2709 C       0      f0    -0.0333
    169 C          -12.2909    -0.0435   -12.0182 C      36     f36     0.0026
    170 C          -11.9291     0.4821   -15.2663 C       0      f0     0.0110
    171 H          -12.1689     2.1382   -11.0395 H       0      f0     0.0207
    172 C          -10.8984    -0.0155   -12.3777 C      36     f36     0.0077
    173 C          -10.3637     1.4829   -12.2738 C       0      f0    -0.0052
    174 C           -9.9043    -0.9863   -12.1701 C      36     f36    -0.0232
    175 H           -8.8444    -1.0598   -12.2318 H       0      f0     0.0249
    176 C           -8.3135     1.6642   -15.4272 C      37     f37    -0.0145
    177 C           -7.0152     1.5283   -14.9469 C      37     f37    -0.0107
    178 C           -6.6824     1.6671   -13.5443 C      37     f37    -0.0006
    179 C           -5.3575     1.7780   -12.9916 C       0      f0    -0.0058
    180 C           -3.3282    -0.9353   -11.9620 C       0      f0    -0.0029
    181 H           -3.3742     1.7236    15.4015 H       0      f0     0.0159
    182 C           -3.3130     0.2928   -11.7852 C       0      f0    -0.0071
    183 C           -3.4299     1.5587   -11.7069 C       0      f0    -0.0005
    184 H           -1.0920    -2.2068   -14.5205 H       0      f0     0.0195
    185 C           -0.0803    -1.8445   -14.7754 C       0      f0    -0.0615
    186 H           -0.1229    -0.9199   -14.3629 H       0      f0     0.0313
    187 H            1.5553    -0.7979   -12.2280 H       0      f0     0.0193
    188 C            2.1077     1.8054   -13.4408 C       0      f0     0.0031
    189 C            2.2276     0.0550   -11.6804 C       0      f0    -0.0183
    190 C            2.8738     1.0501   -12.7527 C       0      f0    -0.0188
    191 H            3.8172     1.3642   -13.4397 H       0      f0     0.0213
    192 H            4.5122    -1.3607   -12.0820 H       0      f0     0.0209
    193 H            4.4099    -1.3866    15.5293 H       0      f0     0.0278
    194 C            4.7653    -1.5642   -14.5517 C       0      f0    -0.0158
    195 H            4.8200     0.5495   -12.3152 H       0      f0     0.0171
    196 C            5.2287     1.1888   -15.4062 C       0      f0    -0.0023
    197 C            5.6647     1.7906   -14.1459 C       0      f0    -0.0154
    198 C            5.6133     1.0511   -12.8660 C       0      f0    -0.0211
    199 C            6.1242    -1.5319   -14.0816 C       0      f0    -0.0151
    200 C            6.1796     1.5802   -11.5991 C       0      f0    -0.0011
    201 H            6.5403    -0.7016   -13.3270 H       0      f0     0.0174
    202 C            7.5413     1.9033   -12.1816 C       0      f0    -0.0201
    203 C            8.0696     1.2277   -13.1970 C       0      f0    -0.0002
    204 H            8.1516    -0.8690   -11.9476 H       0      f0     0.0234
    205 H            8.6832    -0.3856   -14.3092 H       0      f0     0.0171
    206 C            8.9313     0.6737   -13.9887 C       0      f0    -0.0227
    207 C            9.1079    -1.0440   -11.5413 C       0      f0    -0.0157
    208 H            9.0409    -2.8823   -14.5800 H       0      f0     0.0176
    209 C           10.4952     0.9919   -13.6053 C       0      f0    -0.0009
    210 C           11.9270     0.5011   -13.0515 C       0      f0    -0.0007
    211 C           11.8864    -0.8986   -12.8940 C       0      f0    -0.0062
    212 C           12.9972     1.5145   -12.7180 C       0      f0    -0.0298
    213 C           13.1037     2.0191   -14.2907 C       0      f0    -0.0080
    214 H           13.6643     0.6791   -12.4218 H       0      f0     0.0227
    215 C          -14.4117     3.0116   -14.1207 C       0      f0     0.0097
    216 C          -14.1917     3.5937   -15.3872 C       0      f0    -0.0199
    217 C          -13.4238     5.9198   -13.2697 C       0      f0    -0.0075
    218 C          -13.1282     2.8763   -13.0057 C       0      f0    -0.0249
    219 H          -12.8061     5.3341   -11.3365 H       0      f0     0.0196
    220 C          -12.5205     5.8167   -14.0008 C       0      f0    -0.0061
    221 H          -12.1951     2.9591   -13.4176 H       0      f0     0.0255
    222 C          -11.4497     4.1453   -15.0953 C      38     f38    -0.0009
    223 C          -11.3116     5.2117   -14.1420 C      38     f38    -0.0079
    224 C          -10.7667     2.7575   -15.2205 C      38     f38    -0.0078
    225 C          -10.2822     6.1564   -14.1695 C      38     f38     0.0090
    226 C           -9.2444     2.8892   -15.0465 C      38     f38     0.0022
    227 C           -9.3238     5.5776   -11.9000 C       0      f0    -0.0074
    228 C           -8.9904     5.4546   -14.3770 C      38     f38     0.0082
    229 C           -9.0490     1.9083   -12.5868 C       0      f0     0.0025
    230 C           -8.9455     4.2053   -11.8007 C       0      f0    -0.0049
    231 C           -8.7140     4.0978   -14.5721 C      38     f38    -0.0019
    232 C           -8.1880     3.8744   -13.0993 C      37     f37    -0.0191
    233 C           -7.8936     2.3744   -12.9083 C      37     f37     0.0007
    234 H           -7.3253     4.3805   -12.7079 H       0      f0     0.0245
    235 C           -6.9453     6.1846   -15.2966 C      39     f39    -0.0075
    236 H           -6.0802     6.3318   -14.4890 H       0      f0     0.0219
    237 C           -4.9634     5.6950   -11.3449 C      91     f91    -0.0169
    238 H           -4.9228     3.0910   -15.1658 H       0      f0     0.0150
    239 C           -4.5289     3.8578   -14.3596 C       0      f0    -0.0393
    240 H           -4.7667     4.9210   -14.6692 H       0      f0     0.0232
    241 C           -4.0039     3.6974   -13.2088 C       0      f0     0.0131
    242 C           -4.1209     2.1936   -12.9493 C       0      f0    -0.0046
    243 C           -4.0867     4.9969   -12.2357 C      91     f91    -0.0436
    244 C           -3.1103     5.7076   -12.4944 C      91     f91     0.1789
    245 C           -2.4335     2.2074   -15.5657 C       0      f0    -0.0181
    246 C           -2.1381     5.1028   -13.4590 C       0      f0    -0.0164
    247 C           -2.2309     3.6642   -15.3660 C       0      f0     0.0015
    248 C           -1.3933     4.6268   -14.4617 C       0      f0     0.0106
    249 C           -1.3413     3.1402   -11.4834 C       0      f0    -0.0040
    250 C           -0.2419     3.8486   -12.0196 C       0      f0     0.0026
    251 C            0.0903     4.5930   -14.0479 C       0      f0     0.0009
    252 C            0.6063     3.5307   -13.1380 C       0      f0    -0.0063
    253 H            0.6995     5.6208   -11.9138 H       0      f0     0.0272
    254 C            1.1856     5.6584   -14.5831 C      17     f17     0.0002
    255 C            1.1991     2.5237   -14.0381 C       0      f0    -0.0051
    256 C            1.2743     2.7013    15.5716 C      92     f92     0.0513
    257 C            2.6261     5.7539   -14.3333 C      17     f17    -0.0004
    258 H            2.6086     3.9768   -13.4835 H       0      f0     0.0198
    259 C            3.2598     4.3646   -14.3602 C       0      f0    -0.0303
    260 H            3.0568     2.2725    15.5120 H       0      f0     0.0503
    261 H            4.2548     4.3143   -14.0521 H       0      f0     0.0228
    262 H            6.2993     2.8707   -14.3671 H       0      f0     0.0184
    263 C            6.3582     4.8249   -11.1440 C      40     f40     0.0034
    264 C            6.4283     6.2536   -11.5932 C      40     f40     0.0008
    265 C            8.2223     5.6607   -13.0120 C       0      f0    -0.0032
    266 H            8.2032     2.5116   -11.6791 H       0      f0     0.0229
    267 C            8.6842     4.4844   -13.7963 C       0      f0    -0.0080
    268 C           10.1837     3.2288   -15.0810 C       0      f0    -0.0019
    269 C            9.8511     4.6032   -14.5598 C       0      f0     0.0019
    270 H            9.5545     3.9942   -11.8498 H       0      f0     0.0184
    271 C           10.1994     2.1962   -14.1947 C       0      f0    -0.0036
    272 C           10.7874     5.6573   -14.1941 C       0      f0    -0.0178
    273 H           11.4283     4.1774   -12.4706 H       0      f0     0.0170
    274 C           11.5049     5.0947   -13.0008 C       0      f0    -0.0138
    275 H           12.2336     1.9257   -15.0229 H       0      f0     0.0279
    276 H           12.8527     2.2408   -11.8299 H       0      f0     0.0177
    277 C           12.8135     5.6541   -13.3526 C       0      f0    -0.0157
    278 H           12.9982     3.7858   -11.7202 H       0      f0     0.0135
    279 C           14.1649     4.4135   -11.6042 C       0      f0    -0.0171
    280 C           14.0781     5.3966   -12.7709 C       0      f0    -0.0016
    281 C           14.1910     2.5147   -13.9511 C       0      f0     0.0042
    282 C          -14.5947     7.8072   -12.5369 C       0      f0    -0.0104
    283 C          -14.5894     6.3305   -12.7135 C       0      f0    -0.0087
    284 C          -14.2734     9.5603   -13.9910 C       0      f0    -0.0437
    285 C          -13.9764     8.4450   -11.2942 C       0      f0    -0.0025
    286 H          -13.7188     8.6787   -13.9220 H       0      f0     0.0238
    287 H          -14.1467    10.3823   -14.6053 H       0      f0     0.0186
    288 C          -11.2510     9.6570   -11.2226 C       0      f0     0.0094
    289 H           -9.9924     8.4483   -13.9393 H       0      f0     0.0557
    290 C          -10.1389     7.3646   -13.4008 C       0      f0    -0.0169
    291 C           -9.3270     6.9040   -12.1897 C       0      f0     0.0033
    292 C           -9.0502     8.0762   -11.1497 C       0      f0    -0.0228
    293 H           -9.0440     9.0181   -11.6976 H       0      f0     0.0162
    294 C           -8.3323     6.2511   -15.4672 C      39     f39    -0.0293
    295 C           -7.7423    10.0217   -13.0518 C      93     f93    -0.0122
    296 H           -7.9723     9.6856   -11.9292 H       0      f0     0.0104
    297 H           -6.7017     8.3678   -11.4275 H       0      f0     0.0228
    298 C           -6.6470     9.4460   -13.8113 C      93     f93     0.0154
    299 C           -6.3608     9.7095   -15.3003 C      93     f93    -0.0313
    300 C           -5.8663     7.9337   -12.0493 C       0      f0    -0.0374
    301 C           -5.7132     8.3502   -13.2384 C       0      f0    -0.0046
    302 H           -5.1577     9.5876   -14.9101 H       0      f0     0.0220
    303 H           -4.8853     8.0314   -13.7376 H       0      f0     0.0607
    304 C           -4.4124     7.2848   -11.3732 C      91     f91     0.2220
    305 O           -3.2401     7.4162   -12.2360 O      91     f91    -0.4652
    306 H           -0.1376     8.9978   -12.3855 H       0      f0     0.0348
    307 H            2.4996     9.0500   -13.7502 H       0      f0     0.0221
    308 C            2.5876     9.0521   -14.8785 C       0      f0    -0.0178
    309 H            2.6226     9.4351   -11.4707 H       0      f0     0.0180
    310 C            3.2360     7.7149   -15.5729 C      17     f17    -0.0213
    311 H            3.6804     7.3653   -11.9914 H       0      f0     0.0192
    312 C            3.4508     6.9266   -14.2385 C      17     f17    -0.0011
    313 C            3.6334     9.6720   -11.2495 C       0      f0    -0.0401
    314 C            4.2060     7.3920   -12.9344 C       0      f0    -0.0220
    315 C            5.4954     8.0366   -13.0894 C       0      f0    -0.0111
    316 C            5.8516     9.6918   -15.2880 C      26     f26    -0.0003
    317 H            6.0167     8.7142   -12.1631 H       0      f0     0.0171
    318 C            6.8318     7.8620   -13.6444 C       0      f0     0.0003
    319 C            6.7081     8.7094   -14.9603 C      26     f26    -0.0052
    320 C            7.7106     6.5810   -12.2362 C       0      f0     0.0044
    321 C            8.0600     9.3989   -15.2892 C      26     f26    -0.0042
    322 C            7.9643     7.9535   -12.6523 C       0      f0    -0.0187
    323 H            9.0879    10.0865   -11.9018 H       0      f0     0.0220
    324 C            8.8677     8.9697   -11.6634 C       0      f0    -0.0155
    325 H            8.8163     7.7795   -13.2851 H       0      f0     0.0244
    326 C            9.0586     8.3152   -15.5129 C       0      f0    -0.0035
    327 C           10.0166     7.8711   -11.8807 C      71     f71     0.0017
    328 H           10.4614     6.6804   -14.3729 H       0      f0     0.0223
    329 C           10.4272     8.5331   -14.8543 C       0      f0    -0.0047
    330 C           10.8422     9.2127   -13.6180 C       0      f0    -0.0001
    331 C           11.2128     8.1165   -12.5715 C      71     f71    -0.0029
    332 H           12.9856     6.3028   -14.2746 H       0      f0     0.0187
    333 C           12.7471     7.9991   -12.2971 C      71     f71     0.0022
    334 C           13.0287     7.1314   -11.2803 C      71     f71    -0.0125
    335 C           14.0776     8.5919   -12.7524 C       0      f0     0.0016
    336 C           14.2290     9.7123   -13.6529 C       0      f0    -0.0181
    337 H          -13.9806   -14.4043   -13.9086 H       0      f0     0.0174
    338 C          -13.8318    13.7852   -14.6664 C       0      f0    -0.0186
    339 H          -12.6111    13.1136   -11.8722 H       0      f0     0.0133
    340 C          -12.6807    13.0883   -14.5373 C       0      f0    -0.0267
    341 C          -12.4754    10.5518   -11.4193 C       0      f0    -0.0007
    342 H          -12.4633    12.6709   -13.5700 H       0      f0     0.0186
    343 C          -12.2826    12.0734   -11.4612 C       0      f0    -0.0226
    344 C          -11.9719    12.9181   -15.5582 C       0      f0     0.0107
    345 H          -12.2457   -13.9202   -12.4337 H       0      f0     0.0157
    346 C           -9.8426    14.2944   -11.7348 C       0      f0    -0.0126
    347 H           -8.8354    11.7755   -13.4361 H       0      f0     0.0292
    348 C           -8.0647    11.1388   -13.8686 C      93     f93    -0.0149
    349 H           -7.3884    13.0034   -12.4340 H       0      f0    -0.0357
    350 C           -7.3657    11.0096   -15.0921 C      93     f93     0.0464
    351 O           -7.0459    13.9951   -14.4046 O       0      f0    -0.5048
    352 C           -6.7636    13.3004   -13.3531 C       0      f0     0.3153
    353 H           -6.7832    11.6983   -11.3644 H       0      f0     0.0126
    354 C           -5.3756    12.9888   -13.1511 C       0      f0    -0.0545
    355 C           -4.6696    13.2501   -11.9318 C       0      f0     0.0067
    356 C           -4.2446    12.5135   -14.2426 C      94     f94     0.0298
    357 C           -2.9147    12.0957   -14.1817 C      94     f94    -0.0184
    358 H           -2.3056    11.7500   -13.3489 H       0      f0     0.0295
    359 H           -1.2224    13.6721   -11.0039 H       0      f0     0.0134
    360 C            1.6182    12.1579   -11.3183 C       0      f0    -0.0359
    361 H            0.7902    12.9227   -11.6940 H       0      f0     0.0243
    362 C            2.8263    11.9539   -12.1215 C      27     f27     0.0092
    363 C            3.0826    14.2453   -13.5519 C      27     f27     0.2059
    364 C            3.2259    12.8134   -13.1604 C      27     f27    -0.0131
    365 C            3.6898    11.0099   -11.9606 C      27     f27    -0.0011
    366 O            3.6493    14.3574   -15.0406 O      27     f27    -0.4364
    367 C            4.3112    13.0188   -15.2291 C      27     f27     0.2491
    368 C            4.0928    12.2043   -13.9680 C      27     f27    -0.0241
    369 H            4.7288    13.7436   -11.3246 H       0      f0     0.0203
    370 C            4.6043    11.0136   -13.2606 C      27     f27     0.0003
    371 C            5.2523    10.3457   -14.2956 C       0      f0    -0.0076
    372 H            7.4059    11.8756   -11.6994 H       0      f0     0.0159
    373 H            8.3881    11.2922   -13.9437 H       0      f0     0.0162
    374 C            9.4110    10.8555   -14.1012 C       0      f0    -0.0254
    375 C           10.0417    11.0310   -15.2235 C       0      f0     0.0034
    376 C           10.3827    12.4525   -12.0918 C      72     f72     0.0001
    377 C           10.5278    10.5152   -13.1424 C       0      f0    -0.0009
    378 C           10.9286    11.0314   -11.9654 C      72     f72    -0.0022
    379 C           11.2097    14.2314   -13.4590 C       0      f0    -0.0046
    380 C           11.4969    13.2815   -12.5922 C      72     f72     0.0027
    381 C           12.2635    10.4541   -11.4220 C      72     f72     0.0141
    382 C           12.8308    13.0032   -11.8959 C      72     f72    -0.0019
    383 C           13.0927    11.6446   -11.2641 C      72     f72    -0.0057
    384 H           13.5744    10.6192   -13.7326 H       0      f0     0.0160
    385 C           13.5093    14.0834   -11.6647 C       0      f0     0.0039
    386 H           14.8633    12.2713   -14.4368 H       0      f0     0.0119
    387 C           14.6653    13.1254   -15.2712 C       0      f0    -0.0255
    388 C          -14.6159   -10.4990    -9.3501 C      73     f73     0.0141
    389 H          -14.3574   -12.2336    -8.0814 H       0      f0     0.0211
    390 C          -14.0082   -11.1117    -8.1135 C      73     f73    -0.0162
    391 H          -13.3667   -12.8554   -10.8302 H       0      f0     0.0144
    392 C          -12.3217   -11.3999    -7.9940 C       0      f0    -0.0012
    393 C          -12.1874   -12.7747    -8.2348 C       0      f0    -0.0086
    394 C          -11.5820   -13.3415    -9.3737 C       0      f0    -0.0272
    395 H          -11.5674   -12.7235   -10.2369 H       0      f0     0.0200
    396 C          -11.1929   -10.5944    -7.8346 C       0      f0    -0.0127
    397 C          -10.0278   -11.1891    -8.4927 C       0      f0     0.0128
    398 C           -9.0367   -11.7051    -8.8889 C       0      f0    -0.0050
    399 C           -8.1042   -12.6751    -9.4045 C       0      f0    -0.0183
    400 H           -8.2678   -12.6803   -10.5006 H       0      f0     0.0214
    401 C           -7.1376   -13.5735    -8.9334 C       0      f0    -0.0061
    402 H           -6.3954   -10.7999    -6.9716 H       0      f0     0.0168
    403 C           -6.5709   -13.8619    -7.5135 C       5      f5     0.0007
    404 H           -6.4525   -12.1492   -10.6168 H       0      f0     0.0256
    405 C           -5.7117   -11.6724   -10.0264 C       0      f0    -0.0199
    406 C           -4.7737   -12.1936    -9.0820 C       0      f0    -0.0013
    407 C           -3.8367   -13.2130    -8.5965 C      95     f95    -0.0046
    408 C           -3.1791   -13.1425    -7.2684 C      95     f95     0.0021
    409 C           -2.2409   -14.2575    -7.0774 C      95     f95     0.0009
    410 C           -0.7379   -11.1145    -9.8948 C       4      f4    -0.0236
    411 H           -0.5323   -13.7968   -10.8056 H       0      f0     0.0171
    412 H           -0.1135   -11.6261    -9.1975 H       0      f0     0.0216
    413 C            0.5233   -13.4521   -10.7237 C       0      f0    -0.0296
    414 C            0.7934   -13.7254    -8.3123 C      74     f74    -0.0220
    415 C            0.7973   -13.0137    -7.0454 C      74     f74     0.0015
    416 C            1.3831   -13.4341    -9.4824 C      74     f74     0.0077
    417 C            1.9497   -11.0310    -9.2260 C       0      f0    -0.0057
    418 C            2.5685   -12.6076    -9.4561 C      74     f74    -0.0180
    419 C            2.9898   -12.7388    -7.8326 C      74     f74     0.0013
    420 H            3.3706   -12.3916   -10.2618 H       0      f0     0.0183
    421 C            4.3181   -13.3500    -7.7778 C      42     f42    -0.0005
    422 C            4.9240   -14.1623    -8.5001 C       0      f0    -0.0067
    423 H            5.9798   -13.9642    -6.7485 H       0      f0     0.0241
    424 C            6.9252   -13.7832    -9.6692 C       0      f0    -0.0034
    425 C            6.9955   -11.1989    -7.1857 C      10     f10     0.0018
    426 C            7.3949   -12.7159   -10.7225 C       0      f0    -0.0151
    427 C            7.2867   -11.6172   -10.1013 C       0      f0     0.0027
    428 H            8.7344   -13.6515    -6.8635 H       0      f0     0.0206
    429 C            8.2338   -14.3243    -9.1927 C       0      f0     0.0052
    430 C            8.3224   -11.4580    -6.8244 C       0      f0    -0.0180
    431 C            8.8463   -14.1902    -7.8654 C       0      f0    -0.0118
    432 H            9.0556   -11.1000    -7.5971 H       0      f0     0.0404
    433 C            9.9875   -13.8226   -10.9883 C       0      f0    -0.0522
    434 C           10.8341   -13.7488    -6.9635 C       0      f0     0.0245
    435 C           10.7274   -12.6608   -10.9028 C       0      f0     0.2414
    436 O           11.4298   -11.9528    -9.7239 O       0      f0    -0.4497
    437 C           12.8856   -11.1188   -10.3344 C       0      f0     0.1598
    438 H           13.0195   -10.8704   -11.3343 H       0      f0    -0.0031
    439 C           14.0399   -10.8398    -9.7412 C       0      f0    -0.0433
    440 H          -14.8558   -13.9656    -8.5524 H       0      f0     0.0135
    441 H           14.4696   -14.0673   -10.1405 H       0      f0     0.0206
    442 C          -14.6315    -9.9963    -7.1219 C      73     f73     0.0124
    443 C          -14.7140    -6.6982    -9.0061 C       2      f2     0.0040
    444 C          -14.4288    -6.2370   -10.3480 C       2      f2    -0.0387
    445 C          -14.3351    -9.1532    -9.8980 C      73     f73    -0.0003
    446 H          -13.9086    -7.2313   -10.5812 H       0      f0     0.0242
    447 C          -13.2203    -9.1074   -10.8383 C       0      f0    -0.0094
    448 H          -12.7134    -8.2073   -11.1237 H       0      f0     0.0229
    449 H          -11.1826    -9.5025    -7.3307 H       0      f0     0.0917
    450 O           -9.9716    -8.0140    -8.0215 O       0      f0    -0.4674
    451 C           -8.7238    -8.2985    -8.3868 C       0      f0     0.2764
    452 H           -8.5623    -9.0888    -9.3099 H       0      f0    -0.0090
    453 C           -7.5752    -7.4417    -7.9603 C       4      f4    -0.0410
    454 C           -7.4287    -6.2917    -6.8787 C       4      f4     0.0094
    455 H           -6.7457    -8.5996    -9.0815 H       0      f0     0.0094
    456 C           -6.4107    -7.9449    -8.4291 C       4      f4    -0.0208
    457 H           -6.1468    -8.3422   -10.9732 H       0      f0     0.0387
    458 C           -5.4572   -10.0975   -10.0497 C       0      f0    -0.0003
    459 C           -4.9258    -7.7071    -8.0332 C       4      f4     0.0058
    460 C           -5.0274    -6.8963    -6.9749 C       4      f4     0.0087
    461 C           -4.2195    -9.5917    -9.5604 C       4      f4    -0.0105
    462 C           -3.8621    -8.5186    -8.4985 C       4      f4     0.0009
    463 C           -2.9468    -6.7552   -10.7235 C       0      f0    -0.0635
    464 C           -2.9357   -10.0593   -10.0671 C       4      f4    -0.0064
    465 C           -2.6707    -8.5019    -7.6630 C       4      f4     0.0071
    466 H           -1.9720    -7.1802   -10.5292 H       0      f0     0.0667
    467 C           -1.6923   -10.1350    -9.3121 C       4      f4     0.0071
    468 C           -1.4892    -9.4379    -7.9905 C       4      f4     0.0045
    469 H           -0.9195    -9.7318    -6.9638 H       0      f0     0.0170
    470 O            0.1928    -6.8201    -8.9583 O      96     f96    -0.4191
    471 C            0.7124    -7.4246   -10.3411 C      96     f96     0.2226
    472 C            1.4846    -7.6669    -8.3063 C      96     f96     0.1954
    473 C            1.4577    -8.4399   -10.2154 C      96     f96    -0.0465
    474 H            1.8795    -9.1540   -11.0584 H       0      f0     0.0266
    475 C            2.0617    -8.6219    -9.0974 C      96     f96     0.0253
    476 C            2.0250    -7.2234    -7.0724 C       0      f0    -0.0542
    477 C            2.8050    -9.9647    -9.0946 C       0      f0    -0.0195
    478 O            3.5530    -7.0127    -9.7526 O      10     f10    -0.5211
    479 H            3.8266   -10.2549    -8.9764 H       0      f0     0.0232
    480 C            4.3470    -8.3127    -7.2684 C      43     f43    -0.0654
    481 C            4.2613    -7.6147    -8.6990 C      10     f10     0.2582
    482 C            4.7170    -7.1145   -10.8865 C      10     f10     0.2012
    483 C            5.5531    -8.1989    -9.0529 C      44     f44    -0.0458
    484 C            5.6154    -8.8027    -6.9400 C      43     f43     0.0089
    485 C            5.8556    -8.0506   -10.5683 C      44     f44    -0.0340
    486 C            6.4592    -8.7898    -8.0572 C      44     f44     0.0072
    487 H            6.4229    -5.9902    -8.1078 H       0      f0    -0.0150
    488 C            6.8642   -10.1627    -8.2191 C      44     f44    -0.0041
    489 C            7.1764    -8.0906   -11.0185 C      44     f44     0.0241
    490 C            7.3308   -10.4759    -9.7006 C      44     f44     0.0044
    491 C            8.1055    -9.3637   -10.5454 C      44     f44    -0.0349
    492 H            8.9105    -9.0740    -9.7433 H       0      f0     0.0318
    493 H            9.9675    -7.1253    -8.1401 H       0      f0     0.0250
    494 H           10.4512    -8.3506    -9.8460 H       0      f0     0.0313
    495 H           10.5403    -9.2701    -7.3458 H       0      f0     0.0254
    496 C           11.3666    -7.9066    -9.9402 C      35     f35    -0.0301
    497 C           11.6370    -8.9301    -8.0073 C       0      f0    -0.0174
    498 C           11.6742    -6.5302    -8.9045 C      35     f35    -0.0010
    499 H           12.2821    -8.5505   -10.0344 H       0      f0     0.0232
    500 H           12.4558    -9.3401    -8.5254 H       0      f0     0.0365
    501 C           13.3437    -8.2473    -6.7347 C       0      f0     0.0019
    502 C           14.4018    -8.9814    -7.6282 C      73     f73    -0.0058
    503 C           14.9528    -8.2732    -8.9365 C      73     f73    -0.0044
    504 H          -14.4840    -2.2579    -9.2027 H       0      f0     0.0208
    505 C          -14.2413    -4.7793    -7.6075 C       2      f2    -0.0047
    506 C          -13.9695    -3.7359    -6.5751 C       2      f2    -0.0006
    507 C          -13.7479    -2.6371    -9.8697 C       0      f0    -0.0215
    508 H          -13.8172    -5.3682   -10.2175 H       0      f0     0.0263
    509 C          -13.7005    -6.0174    -7.9663 C       2      f2     0.0044
    510 C          -12.7359    -3.6573    -9.9622 C       0      f0    -0.0020
    511 C          -12.3059    -5.7634    -7.7655 C       0      f0     0.0189
    512 C          -11.8818    -4.4126   -10.1959 C       0      f0    -0.0039
    513 C          -11.0779    -5.3755    -7.7178 C       0      f0     0.0431
    514 C          -10.7862    -4.5308    -9.0441 C       0      f0     0.0041
    515 C          -10.1172    -3.5166    -8.6742 C       0      f0    -0.0019
    516 C           -9.5778    -2.2778    -8.4700 C       0      f0    -0.0217
    517 C           -8.8452    -3.3288   -10.9845 C       0      f0    -0.0211
    518 H           -8.6254    -2.2665   -10.6269 H       0      f0     0.0178
    519 C           -8.0745    -4.3771   -10.6827 C       0      f0     0.0171
    520 C           -7.4428    -2.1000    -6.8079 C       0      f0    -0.0101
    521 C           -7.1308    -5.3070   -10.3029 C       0      f0    -0.0248
    522 H           -7.1468    -6.2983   -10.9330 H       0      f0     0.0500
    523 H           -6.3774    -5.1585    -9.5635 H       0      f0     0.0334
    524 H           -4.4221    -4.8443   -10.2055 H       0      f0     0.0411
    525 C           -3.4622    -5.4251   -10.4667 C       0      f0     0.0706
    526 O           -2.1429    -3.8767    -8.0101 O       0      f0    -0.4589
    527 C           -2.0652    -2.8208    -7.3347 C       0      f0     0.3341
    528 C            0.6152    -2.5073    -6.6728 C       0      f0    -0.0217
    529 H            0.5968    -3.5308    -6.6568 H       0      f0     0.0461
    530 H            1.7512    -4.8843    -9.1659 H       0      f0     0.0897
    531 C            1.9329    -3.9299   -11.0550 C       0      f0     0.0170
    532 C            2.3046    -4.1274    -9.4229 C       0      f0    -0.0035
    533 C            2.9932    -3.1438    -8.5057 C       0      f0     0.0018
    534 C            4.4122    -2.7820    -8.5045 C      75     f75     0.0064
    535 H            5.3187    -4.7688    -7.7849 H       0      f0     0.0158
    536 C            5.3768    -3.6829    -7.6690 C      75     f75    -0.0115
    537 C            5.8774    -4.8056   -10.0828 C       0      f0     0.0389
    538 C            6.3079    -3.1002    -6.8033 C      75     f75    -0.0202
    539 C            6.6152    -5.5102    -9.0777 C       0      f0     0.1896
    540 O            7.8787    -5.1875    -9.9554 O       0      f0    -0.4804
    541 C            9.7167    -2.6147    -7.7154 C       0      f0     0.0000
    542 C            9.9586    -3.7814    -8.2201 C       0      f0     0.0294
    543 H           10.7877    -3.9772    -9.0527 H       0      f0     0.0261
    544 C           10.4761    -6.2025    -8.4427 C       0      f0     0.0154
    545 C           10.4238    -5.0242    -7.4811 C       0      f0    -0.0025
    546 H           12.0910    -3.3084    -9.7532 H       0      f0     0.0227
    547 H           12.6702    -4.6679    -9.2027 H       0      f0     0.0215
    548 C           12.5647    -3.0242    -8.8240 C       0      f0    -0.0292
    549 C           12.9587    -5.7336    -9.0365 C      35     f35    -0.0174
    550 C           13.0639    -5.8363   -10.6695 C      35     f35    -0.0011
    551 C           13.4860    -3.3545    -7.9378 C       2      f2     0.0049
    552 C           13.7290    -2.3359    -6.9574 C       2      f2    -0.0244
    553 C           14.2135    -5.7590    -8.4727 C       2      f2     0.0002
    554 C           14.3902    -4.7285    -8.0017 C       2      f2    -0.0086
    555 C          -14.8190     1.5675    -7.2005 C       0      f0     0.0061
    556 C          -13.7031    -1.7701   -10.8478 C       0      f0    -0.0068
    557 H          -13.2741     0.7779   -10.3795 H       0      f0     0.0240
    558 H          -11.2811     0.2030    -7.3181 H       0      f0     0.0220
    559 C          -11.0568     0.7133    -8.2188 C       0      f0    -0.0287
    560 C          -10.5712     1.4742    -9.0708 C       0      f0     0.0051
    561 H          -10.0113    -1.3984    -9.0586 H       0      f0     0.0158
    562 H           -9.0177    -0.0423    -9.8142 H       0      f0     0.0191
    563 C           -8.2047    -1.9071    -8.2008 C       0      f0     0.0017
    564 C           -8.0153     0.1833    -9.4807 C       0      f0    -0.0163
    565 C           -7.6035     1.5481    -9.3126 C      76     f76     0.0010
    566 C           -7.3545    -0.9045    -8.7954 C       0      f0    -0.0243
    567 H           -6.5407    -0.8355    -8.1549 H       0      f0     0.0216
    568 C           -6.1665     1.8987    -8.9407 C      76     f76     0.0050
    569 C           -6.0758    -2.1007    -6.7059 C       0      f0    -0.0056
    570 C           -5.0764     1.0509    -9.1386 C       0      f0    -0.0231
    571 H           -5.6008     0.0056    -9.3202 H       0      f0     0.0203
    572 C           -4.7643    -1.7257    -6.9306 C       0      f0    -0.0049
    573 C           -3.6821     1.4517    -9.2460 C       0      f0     0.0006
    574 H           -3.3705    -0.7008    -8.9169 H       0      f0     0.0253
    575 C           -2.8637     0.1820    -9.5077 C       0      f0    -0.0137
    576 C           -1.3569     0.1759    -9.8379 C       0      f0    -0.0166
    577 C           -0.8302     1.2629    -9.1927 C       0      f0    -0.0029
    578 H           -0.8915    -0.6538   -10.4030 H       0      f0     0.0215
    579 H            0.5115    -1.9736    -8.9883 H       0      f0     0.0296
    580 C            0.8337    -1.6135    -7.8747 C       0      f0     0.0026
    581 H            1.0956     2.6211   -10.2632 H       0      f0     0.0189
    582 C            2.2044    -1.9859    -8.1846 C       0      f0    -0.0079
    583 C            2.5624     0.4399   -10.4562 C       0      f0    -0.0032
    584 C            2.8999     0.9279    -9.2559 C       0      f0    -0.0236
    585 H            3.7539     0.6208    -8.6500 H       0      f0     0.0176
    586 H            3.9777    -0.8313    -9.3708 H       0      f0     0.0174
    587 C            4.8032    -1.4654    -8.8596 C      75     f75    -0.0216
    588 H            5.3166     2.1042    -6.9387 H       0      f0     0.0234
    589 C            6.1614    -1.0508    -8.3993 C      75     f75    -0.0025
    590 C            6.4181     0.6643   -10.6074 C       0      f0    -0.0123
    591 C            6.6664    -0.3872    -9.6075 C       0      f0     0.0013
    592 C            6.9179    -1.8692    -7.4071 C      75     f75     0.0138
    593 H            7.9177    -0.0043    -7.5332 H       0      f0     0.0268
    594 C            8.0268    -0.9184    -7.1388 C       0      f0    -0.0388
    595 C            8.2750     1.8434    -6.9258 C      18     f18    -0.0262
    596 H            9.8933     0.2467    -9.8306 H       0      f0     0.0198
    597 C            9.5411    -1.3895    -7.2640 C       0      f0     0.0083
    598 C            9.5052     1.5509    -7.5648 C      18     f18     0.0022
    599 C            9.6382    -0.9442   -10.2293 C       0      f0     0.0002
    600 C           10.7246     0.4626    -7.5749 C      18     f18     0.0041
    601 C           10.9040    -0.7587    -7.0442 C       0      f0    -0.0249
    602 C           10.7680    -1.3365    -9.7506 C       0      f0    -0.0023
    603 C           11.2981     2.0019    -9.5396 C      18     f18    -0.0117
    604 H           11.7409    -1.3452    -7.2006 H       0      f0     0.0250
    605 C           11.8258     0.9817    -8.5805 C      18     f18    -0.0002
    606 C           11.8588    -1.5535    -9.1224 C       0      f0    -0.0026
    607 C           12.5444    -0.2405    -8.7871 C       0      f0    -0.0012
    608 H           13.5287    -1.5174    -6.3117 H       0      f0     0.0169
    609 C           14.0287    -0.0699    -9.1663 C       0      f0    -0.0190
    610 H           14.2300    -0.4550   -10.1989 H       0      f0     0.0182
    611 C           14.8580     0.6974    -8.4645 C       0      f0    -0.0018
    612 C          -14.9144     4.6704   -10.5181 C      77     f77     0.0073
    613 C          -13.5519     4.3050    -7.8589 C      77     f77    -0.0002
    614 C          -13.3187     5.1255   -10.3132 C      77     f77    -0.0143
    615 C          -12.7306     4.3737    -9.0595 C      77     f77    -0.0204
    616 H          -11.7339     4.3928    -8.7375 H       0      f0     0.0196
    617 H          -10.4905     3.0487   -10.1398 H       0      f0     0.0192
    618 C           -9.8915     2.2441   -10.0072 C       0      f0    -0.0227
    619 H           -8.6890     2.7893    -6.7315 H       0      f0     0.0197
    620 C           -8.4874     2.5583    -9.9385 C      76     f76     0.0050
    621 C           -8.1588     3.8809   -10.4189 C      76     f76    -0.0088
    622 H           -7.8915     5.7973    -9.0090 H       0      f0     0.0183
    623 H           -6.7231     3.6355    -8.0705 H       0      f0     0.0243
    624 C           -6.8528     4.3426   -10.0038 C      76     f76    -0.0015
    625 C           -6.0853     3.4116    -8.8622 C      76     f76    -0.0378
    626 C           -5.9531     5.1363   -10.6363 C       0      f0    -0.0008
    627 H           -5.0927     3.7018    -8.6423 H       0      f0     0.0248
    628 H           -3.2140     5.8849    -6.9315 H       0      f0     0.0200
    629 C           -2.9559     4.1039    -9.1743 C       0      f0    -0.0046
    630 C           -3.1444     2.7569    -9.5661 C       0      f0    -0.0021
    631 C           -2.7458     5.3020    -8.7649 C       0      f0     0.0039
    632 C           -2.4092     2.5606   -10.9763 C       0      f0    -0.0003
    633 C           -1.2298     5.6420    -9.0228 C       0      f0     0.0003
    634 C           -0.5782     5.9567   -10.2738 C      78     f78     0.0180
    635 C           -0.3185     2.3711    -8.4577 C       0      f0     0.0307
    636 C            0.3030     5.0060   -11.1198 C      78     f78    -0.0209
    637 C            1.1735     2.3621    -9.1675 C      97     f97    -0.0131
    638 C            1.3631     4.9598    -9.8749 C      78     f78    -0.0062
    639 C            1.5518     3.9334    -8.9585 C      97     f97     0.0029
    640 C            2.3665     6.0612   -10.0502 C      78     f78    -0.0015
    641 C            2.3269     4.2331    -7.8171 C      97     f97    -0.0151
    642 C            2.4749     2.0360    -8.5040 C      97     f97     0.0079
    643 C            2.6984     3.0070    -7.3499 C      97     f97     0.0337
    644 H            2.4206     5.4646    -7.6362 H       0      f0     0.0234
    645 H            3.4423     3.9476   -11.4406 H       0      f0     0.0171
    646 C            3.7748     5.8373   -10.2922 C      40     f40    -0.0020
    647 C            4.1080     4.5482   -10.8960 C      40     f40    -0.0186
    648 H            5.6990     3.0575   -10.2343 H       0      f0     0.0199
    649 C            5.4060     3.8284   -10.8497 C      40     f40    -0.0207
    650 H            5.7027     2.9943    -8.5225 H       0      f0     0.0237
    651 C            6.0080     2.5946    -7.5691 C       0      f0    -0.0448
    652 C            6.8885     6.2449    -6.5737 C       0      f0    -0.0213
    653 C            7.0441     6.1887    -8.1552 C       0      f0     0.0010
    654 C            7.3174     2.4772    -7.6741 C      18     f18     0.0097
    655 C            7.4764     4.8935    -8.1845 C       0      f0    -0.0074
    656 C            8.0093     3.6393    -8.5989 C      18     f18    -0.0048
    657 C            9.1671     3.2812    -9.5173 C      18     f18     0.0016
    658 C            9.4450     4.2144   -10.6670 C       0      f0    -0.0194
    659 C            9.6551     5.6223   -10.6365 C       0      f0    -0.0009
    660 C            9.8590     2.1209    -9.0706 C      18     f18    -0.0038
    661 C           11.6169     6.3595    -6.5945 C       0      f0     0.0085
    662 H           11.7031     5.6034    -8.6789 H       0      f0     0.0197
    663 H           13.0591     3.9093    -9.4038 H       0      f0     0.0177
    664 C           14.1173     2.6494    -7.5034 C       0      f0    -0.0034
    665 C           14.2532     4.1275    -9.4828 C      77     f77    -0.0178
    666 C           14.9068     3.6990    -8.3591 C      77     f77     0.0021
    667 C          -13.6646     7.8085   -10.2205 C     127    f127     0.0276
    668 C          -13.6834     9.9821   -10.9473 C       0      f0     0.0180
    669 C          -13.6889     6.5449    -9.6416 C     127    f127    -0.0115
    670 C          -13.0803     7.1278    -8.4838 C     127    f127     0.0442
    671 C          -12.4239     6.6633    -7.5041 C       0      f0     0.0094
    672 H          -10.8050     7.4145   -10.6833 H       0      f0     0.0248
    673 C          -10.4691     8.6328   -10.8887 C       0      f0    -0.0037
    674 C          -10.2027     6.8680    -6.7346 C       0      f0    -0.0096
    675 C           -9.4177     7.0952    -7.8842 C       0      f0     0.0113
    676 C           -8.4974     6.9517    -8.8774 C       0      f0    -0.0159
    677 H           -8.4880    10.0684   -10.7223 H       0      f0     0.0136
    678 C           -7.8315     7.8089    -9.9621 C       0      f0    -0.0035
    679 C           -7.0659     8.9100    -9.6740 C       0      f0    -0.0040
    680 C           -5.8589     6.4199    -6.6841 C       0      f0    -0.0093
    681 C           -5.8764     8.4290    -9.1101 C       0      f0    -0.0133
    682 C           -5.1356     6.5106    -7.8299 C     125    f125    -0.0026
    683 C           -4.7905     7.8862    -8.4548 C     125    f125     0.0010
    684 H           -4.2790     7.5124   -10.3631 H       0      f0    -0.0037
    685 C           -3.5596     6.3176    -7.7796 C     125    f125    -0.0149
    686 C           -3.1081     7.7950    -8.0621 C     125    f125    -0.0321
    687 H           -2.7611     8.2436    -7.0473 H       0      f0     0.0200
    688 H           -2.7497     8.2304    -8.9994 H       0      f0     0.0323
    689 H           -1.2968     8.8530    -9.4102 H       0      f0     0.0249
    690 C           -1.0168     6.2992    -7.5521 C       0      f0    -0.0034
    691 C           -0.3717     8.8297   -10.0039 C       0      f0    -0.0223
    692 C           -0.5736     9.4442   -11.2784 C       0      f0     0.0032
    693 C            0.1983     7.3327   -10.1877 C      78     f78     0.0098
    694 C            0.1401     6.8145    -6.9372 C       0      f0    -0.0195
    695 C            1.6017     7.2621   -10.3238 C      78     f78    -0.0225
    696 H            1.9232     8.3864   -10.2583 H       0      f0     0.0163
    697 H            2.6688    10.9030    -9.5953 H       0      f0     0.0149
    698 C            2.8168     7.2134    -6.7470 C       0      f0    -0.0104
    699 C            3.3421     7.5475    -7.8613 C       0      f0    -0.0073
    700 C            4.3748     8.0658    -8.8413 C       0      f0    -0.0021
    701 H            4.4793     9.0197   -11.2853 H       0      f0     0.0226
    702 C            4.5574     9.6204    -8.8505 C      45     f45    -0.0020
    703 C            4.6598     7.0225    -9.8188 C      40     f40    -0.0041
    704 C            5.0994    10.0360    -7.5801 C      45     f45     0.0031
    705 C            6.0146     6.8503   -10.2831 C      40     f40    -0.0007
    706 C            6.5070     9.6826    -7.1212 C       0      f0    -0.0081
    707 C            6.8519     7.0189    -9.1961 C       0      f0    -0.0000
    708 C            7.6936     9.2846    -7.9802 C       0      f0     0.0122
    709 C            7.6416     8.2929    -9.1315 C       0      f0     0.0003
    710 C            8.2770     8.8600   -10.2311 C       0      f0     0.0044
    711 C           10.3771     6.7874   -10.8843 C      71     f71    -0.0015
    712 C           12.1172     6.4249    -9.1190 C       0      f0    -0.0080
    713 C           11.7989     6.7443   -10.4783 C      71     f71     0.0080
    714 C           12.2829     7.5355    -8.2778 C       0      f0    -0.0243
    715 C           12.5435     8.3521    -7.2677 C       0      f0     0.1990
    716 O           13.5113     9.7875    -7.3628 O       0      f0    -0.4653
    717 H           14.0843     7.0724   -11.0404 H       0      f0     0.0297
    718 C          -14.7015    13.1990    -7.5380 C      19     f19     0.0007
    719 C          -14.6873    10.6968   -10.0060 C       0      f0    -0.0111
    720 H          -14.2075    10.8429    -9.0810 H       0      f0     0.0727
    721 C          -13.2770    13.1602    -7.9890 C       0      f0     0.0209
    722 C          -12.0832    13.1673    -8.5742 C       0      f0    -0.0586
    723 O          -11.9521    10.4409    -8.1979 O       0      f0    -0.5012
    724 C          -11.4967    14.1712    -9.5303 C       0      f0     0.0015
    725 C          -11.6591    11.4640    -8.7292 C       0      f0     0.3617
    726 C          -11.0642    12.1621   -11.1237 C       0      f0    -0.0212
    727 C          -10.9025    13.6752   -10.7783 C       0      f0    -0.0111
    728 H          -10.7129    11.9654    -8.8239 H       0      f0    -0.0365
    729 H          -10.1261    11.4629   -10.7070 H       0      f0     0.0153
    730 H           -8.8907    14.3910   -11.3109 H       0      f0     0.0223
    731 H           -8.0664    10.6783    -8.7050 H       0      f0     0.0272
    732 C           -7.6254    10.3704    -9.7339 C       0      f0    -0.0301
    733 C           -6.5401    13.4449    -7.5065 C       5      f5    -0.0001
    734 C           -6.4465    11.4791   -10.2403 C       0      f0    -0.0175
    735 H           -5.3696   -14.3856   -10.0784 H       0      f0     0.0231
    736 C           -5.6670    12.4311    -8.0568 C       0      f0    -0.0021
    737 C           -5.3572    12.2476    -9.6362 C       0      f0    -0.0005
    738 C           -5.2976    11.1454    -7.3562 C       0      f0    -0.0232
    739 H           -5.1453    10.2678    -7.8970 H       0      f0     0.0247
    740 C           -4.7911    13.6649    -9.7816 C       0      f0    -0.0191
    741 C           -3.9183    14.2471    -8.5636 C      95     f95     0.0063
    742 C           -3.7958    13.5377   -10.9145 C       0      f0     0.0022
    743 C           -2.8032    13.6823    -7.9870 C      95     f95    -0.0159
    744 C           -2.2832    14.2180   -11.1253 C       0      f0    -0.0239
    745 H           -2.1962    13.0531    -8.7655 H       0      f0     0.0168
    746 C           -1.2565    11.0850    -7.2008 C       0      f0    -0.0167
    747 H           -1.0322    10.2417    -7.9122 H       0      f0     0.0149
    748 H           -0.1690    10.4370   -10.7406 H       0      f0     0.0108
    749 H           -0.3176   -14.1335    -8.4529 H       0      f0     0.0157
    750 C           -0.3476    12.2616    -6.8494 C      98     f98    -0.0154
    751 H            0.2221    12.7865    -7.6047 H       0      f0     0.0174
    752 H            1.3909    11.0065   -10.9645 H       0      f0     0.0140
    753 C            3.7727    10.5102    -9.8196 C      45     f45    -0.0138
    754 H            3.9585    12.8871    -6.2168 H       0      f0     0.0174
    755 C            4.1653    12.2473    -7.1283 C      45     f45    -0.0179
    756 C            4.3171    12.3542    -8.4793 C      45     f45    -0.0002
    757 C            4.5820    11.9914    -9.8043 C      45     f45    -0.0019
    758 C            4.9076    13.3317   -10.3521 C       0      f0    -0.0209
    759 C            5.6576    14.3506    -9.5676 C       0      f0    -0.0033
    760 C            8.0702    11.9418   -10.8415 C       0      f0    -0.0255
    761 C            8.1852    11.1520    -9.6598 C       0      f0     0.0008
    762 C            8.4357    10.4875    -8.4441 C       0      f0    -0.0123
    763 H            8.7099    11.3119    -7.8440 H       0      f0     0.0265
    764 C            9.2135    14.1269   -10.5724 C       0      f0     0.0210
    765 C            9.2879    12.8070   -11.2095 C       0      f0    -0.0033
    766 C           10.2517    14.3104    -7.9282 C       0      f0    -0.0035
    767 H           10.6621    13.4120    -8.2126 H       0      f0     0.0290
    768 C           14.1734    11.2222   -10.4006 C       0      f0     0.0231
    769 C           14.4736    14.4437    -7.6416 C      19     f19    -0.0092
    770 C           14.5766    12.1496    -6.7481 C      19     f19    -0.0201
    771 C          -14.4794   -10.8561    -5.9727 C      99     f99    -0.0434
    772 O          -14.1446   -10.7256    -3.4192 O      99     f99    -0.4764
    773 C          -12.4463   -13.8460    -4.1594 C       5      f5     0.0665
    774 C          -12.2104    14.3617    -5.4249 C       5      f5    -0.0030
    775 C          -11.7061   -12.6885    -4.5987 C       5      f5    -0.0477
    776 H          -12.1783   -11.9677    -3.9712 H       0      f0     0.0604
    777 C          -10.8309   -14.4025    -5.3457 C       5      f5     0.0199
    778 C          -10.3592   -13.1075    -4.7860 C       5      f5     0.0004
    779 C           -8.8941   -12.7793    -4.5685 C       5      f5    -0.0179
    780 C           -7.9824   -13.6567    -5.3135 C       5      f5    -0.0028
    781 C           -7.7054   -10.5890    -2.2980 C      46     f46    -0.0046
    782 H           -6.9525   -11.3949    -4.0041 H       0      f0     0.0215
    783 C           -6.9022   -13.1165    -6.1178 C       5      f5     0.0005
    784 C           -6.3384   -11.7158    -6.1414 C       0      f0    -0.0177
    785 C           -5.9919   -10.9254    -3.9098 C       0      f0    -0.0215
    786 H           -5.0389   -14.0891    -4.2221 H       0      f0     0.0200
    787 C           -5.3032   -11.4302    -5.0169 C       0      f0    -0.0027
    788 C           -3.9996   -11.5795    -5.7613 C       0      f0    -0.0009
    789 C           -3.8233   -13.1964    -2.4682 C       0      f0    -0.0019
    790 C           -2.9850   -11.8031    -6.5119 C       0      f0    -0.0256
    791 C           -2.7457   -12.8209    -3.1604 C       0      f0    -0.0200
    792 H           -2.8581   -12.9159    -4.2666 H       0      f0     0.0206
    793 H           -1.9760   -11.9546    -6.9194 H       0      f0     0.0203
    794 C           -1.5066   -12.2600    -2.4343 C       0      f0    -0.0027
    795 H           -1.3925   -12.1364    -4.6075 H       0      f0     0.0199
    796 C           -1.1939   -14.1204    -6.0705 C       0      f0    -0.0044
    797 C           -0.6674   -13.2584    -2.7208 C       0      f0     0.0011
    798 C           -0.3902   -11.8886    -5.0144 C      41     f41    -0.0160
    799 C           -0.2572   -12.9302    -5.9017 C      41     f41    -0.0031
    800 C            0.1730   -10.5414    -4.7848 C      41     f41    -0.0190
    801 C            0.5819   -13.8655    -2.9067 C       0      f0    -0.0129
    802 H            1.3927   -13.5267    -1.8939 H       0      f0     0.0160
    803 C            1.5490   -11.2013    -4.5433 C      41     f41     0.0041
    804 C            2.0328   -10.5856    -3.1561 C       0      f0    -0.0252
    805 C            2.2225   -12.5097    -6.6591 C      74     f74    -0.0011
    806 C            2.5610   -11.8968    -5.2384 C      42     f42     0.0023
    807 H            2.9468   -10.5537    -2.5872 H       0      f0     0.0172
    808 H            4.1899   -13.1753    -4.1366 H       0      f0     0.0208
    809 C            3.9562   -12.1646    -4.5886 C      42     f42    -0.0412
    810 H            4.0444   -11.3966    -4.0212 H       0      f0     0.0232
    811 H            4.1822   -14.0942    -6.1891 H       0      f0     0.0218
    812 C            5.1284   -13.5168    -6.4409 C      42     f42    -0.0404
    813 C            5.0139   -12.1706    -5.7706 C      42     f42     0.0081
    814 C            5.9482   -11.2185    -6.1001 C      10     f10    -0.0104
    815 H            7.8123   -13.1429    -3.8634 H       0      f0     0.0166
    816 H            7.9694   -12.0735    -2.4574 H       0      f0     0.0167
    817 H            7.8380   -11.7381    -4.7678 H       0      f0     0.0163
    818 C            8.4873   -12.8867    -2.9766 C       0      f0    -0.0374
    819 C            8.3756   -14.2487    -2.5354 C       0      f0    -0.0005
    820 C            8.7560   -11.3678    -5.3702 C       0      f0    -0.0325
    821 H            9.4909   -10.6429    -4.8852 H       0      f0     0.0161
    822 C           10.0098   -12.6418    -3.5326 C       0      f0     0.0012
    823 C           10.0105   -12.3628    -5.0578 C       0      f0    -0.0080
    824 C           10.7833   -12.7587    -2.4450 C       0      f0    -0.0066
    825 C           11.1511   -12.9484    -5.8435 C       0      f0     0.0107
    826 C           12.1265   -12.1739    -2.7929 C       0      f0     0.0263
    827 C           12.5054   -12.3658    -5.6820 C       0      f0    -0.0001
    828 H           12.0624   -11.5322    -5.0676 H       0      f0     0.0166
    829 C           13.4164   -11.7756    -3.1963 C       0      f0     0.0070
    830 C           13.6900   -12.6979    -6.0413 C       0      f0     0.0503
    831 O           13.7682   -14.3543    -3.9516 O      19     f19    -0.4802
    832 C           14.1744   -14.0357    -6.3434 C      19     f19    -0.0324
    833 C           14.5171   -11.7459    -5.4777 C      99     f99    -0.0234
    834 C           14.4637   -11.4790    -3.9669 C      99     f99     0.2138
    835 C          -14.4294    -6.1523    -4.3825 C       0      f0    -0.0095
    836 C          -13.6689   -10.3669    -4.8287 C      99     f99     0.2193
    837 C          -12.4528    -9.7454    -5.1414 C       0      f0    -0.0405
    838 C          -11.1947    -9.2537    -4.7809 C       0      f0     0.0307
    839 C          -10.3732    -7.5668    -3.3347 C       0      f0     0.0356
    840 C          -10.2251    -8.4201    -4.2700 C       0      f0     0.0054
    841 C          -10.3503    -6.8077    -2.3858 C       0      f0     0.0158
    842 C           -8.7947    -9.2283    -4.4429 C       0      f0    -0.0169
    843 H           -9.2062    -9.7957    -5.3896 H       0      f0     0.0290
    844 C           -8.0015    -9.7881    -3.3400 C       0      f0    -0.0083
    845 C           -7.8730    -7.8125    -4.1342 C       0      f0    -0.0078
    846 C           -7.8096    -7.0553    -3.1307 C       0      f0    -0.0048
    847 H           -7.3508    -7.4812    -5.1860 H       0      f0     0.0205
    848 H           -5.3178    -8.6062    -4.7933 H       0      f0     0.0169
    849 C           -5.2982    -8.4874    -3.6866 C       0      f0    -0.0208
    850 C           -5.6888    -9.8384    -2.9598 C       0      f0    -0.0100
    851 H           -5.3318    -6.4882    -4.0733 H       0      f0     0.0150
    852 C           -5.4173    -7.2650    -3.2656 C       0      f0    -0.0190
    853 H           -4.7784    -9.7650    -2.1999 H       0      f0     0.0174
    854 H           -3.7954    -5.9049    -5.6012 H       0      f0     0.0291
    855 C           -3.8416    -6.7682    -6.1820 C       4      f4    -0.0241
    856 C           -2.5529    -7.2514    -6.6802 C       4      f4     0.0378
    857 C           -1.3460    -7.0507    -5.8878 C       0      f0     0.0303
    858 H            0.2069    -8.0253    -4.7804 H       0      f0     0.0147
    859 C           -0.2896    -7.0693    -5.2370 C       0      f0    -0.0134
    860 H           -0.3555    -9.5165    -4.5925 H       0      f0     0.0145
    861 C            0.6437    -6.3520    -2.9379 C     100    f100    -0.0124
    862 H            2.0351    -7.6266    -4.5205 H       0      f0     0.0187
    863 H            1.5623    -6.4204    -6.7076 H       0      f0     0.0576
    864 C            2.8041    -8.1757    -5.1804 C      43     f43    -0.0196
    865 C            3.2393    -7.9820    -6.5683 C      43     f43     0.0229
    866 H            3.5079    -8.8749    -3.3089 H       0      f0     0.0169
    867 C            3.8401    -8.4769    -4.2373 C      43     f43    -0.0142
    868 C            4.0760    -6.8675    -3.2899 C       0      f0    -0.0075
    869 C            5.2852    -8.8624    -4.5593 C      43     f43    -0.0158
    870 C            5.5712    -9.7869    -5.6485 C      43     f43    -0.0041
    871 H            5.4884    -9.6405    -3.7589 H       0      f0     0.0126
    872 H            5.6688    -8.6219    -1.8161 H       0      f0     0.0252
    873 H            8.0864    -7.8627    -3.3508 H       0      f0     0.0131
    874 C            7.8454    -7.0017    -4.1729 C       0      f0    -0.0137
    875 H            8.1736    -9.3911    -5.2066 H       0      f0     0.0158
    876 C            8.0521    -7.1061    -5.5482 C       0      f0    -0.0111
    877 C            8.5139    -8.4557    -5.8245 C       0      f0    -0.0243
    878 H           11.3364    -7.5808    -6.2376 H       0      f0     0.0184
    879 H           11.6305    -8.0391    -3.4644 H       0      f0     0.0155
    880 C           11.9818    -8.1890    -6.8623 C       0      f0    -0.0260
    881 C           11.9938    -7.1084    -3.7003 C       0      f0    -0.0229
    882 C           12.8699    -6.6948    -2.5638 C       0      f0    -0.0171
    883 H           13.7406    -9.4861    -2.4334 H       0      f0     0.0573
    884 C           13.7527    -7.2812    -5.8095 C       0      f0    -0.0077
    885 C           14.6563    -6.6126    -5.0193 C       0      f0     0.0073
    886 C           14.8539    -2.8877    -6.2939 C       2      f2    -0.0027
    887 C          -14.4650    -2.6012    -4.7979 C       2      f2    -0.0169
    888 C          -13.5112    -3.5150    -4.2839 C       2      f2     0.0432
    889 H          -13.5824    -6.5247    -3.6521 H       0      f0     0.0621
    890 C          -13.1399    -4.1327    -5.4592 C       2      f2    -0.0120
    891 C          -13.1684    -3.1249    -3.0159 C      47     f47    -0.0724
    892 C          -11.8708    -4.6855    -5.5222 C       0      f0     0.0668
    893 O          -11.5126    -4.9997    -2.9263 O      48     f48    -0.5030
    894 C          -10.7254    -4.9217    -6.1725 C       0      f0     0.0080
    895 C          -10.2943    -2.2652    -5.8526 C       0      f0     0.0039
    896 C           -9.2474    -4.6230    -6.0078 C       0      f0     0.0036
    897 C           -9.1020    -3.2431    -5.4842 C       0      f0     0.0031
    898 H           -8.6563    -3.9229    -3.0796 H       0      f0     0.0381
    899 C           -8.5353    -5.5795    -6.5049 C       0      f0     0.0239
    900 C           -8.1172    -4.5682    -2.4169 C       0      f0    -0.0346
    901 C           -7.7445    -3.0413    -5.8055 C       0      f0    -0.0008
    902 H           -7.8873    -4.5701    -4.2668 H       0      f0     0.0260
    903 C           -7.5635    -5.9982    -2.1878 C       0      f0    -0.0003
    904 C           -7.3086    -3.2954    -2.3449 C      20     f20    -0.0096
    905 C           -7.0914    -3.9457    -4.7655 C       0      f0    -0.0215
    906 C           -6.7027    -3.2345    -3.3902 C      20     f20     0.0025
    907 C           -5.9406    -5.8243    -6.4799 C       4      f4    -0.0009
    908 C           -5.7978    -4.7615    -5.5195 C       0      f0    -0.0107
    909 H           -4.9429    -4.7697    -4.6614 H       0      f0     0.0142
    910 H           -2.6562    -5.4853    -4.5479 H       0      f0     0.0231
    911 C           -1.7895    -5.7002    -2.4653 C     100    f100     0.0015
    912 C           -1.7856    -5.7550    -3.8736 C     100    f100    -0.0169
    913 H           -0.9508    -2.5065    -2.1735 H       0      f0     0.0162
    914 C           -0.2916    -6.1201    -4.0395 C     100    f100     0.0072
    915 C            2.0848    -2.1372    -3.5496 C       0      f0    -0.0040
    916 C            3.0892    -2.7614    -3.3744 C       0      f0    -0.0099
    917 C            4.1928    -3.2734    -3.0608 C       0      f0    -0.0006
    918 C            5.1740    -6.1671    -3.4270 C       0      f0     0.0006
    919 C            5.6226    -3.6378    -2.9884 C       0      f0    -0.0133
    920 H            6.3259    -3.0289    -3.7190 H       0      f0     0.0118
    921 C            6.1461    -5.2851    -3.1800 C       0      f0    -0.0037
    922 H            6.7734    -3.6549    -6.0422 H       0      f0     0.0214
    923 C            7.2999    -5.6036    -3.8503 C       0      f0     0.0055
    924 H            8.0758    -3.4581    -3.5310 H       0      f0     0.0165
    925 C            8.2068    -4.4745    -3.4874 C       0      f0    -0.0191
    926 H            7.8678    -6.4346    -6.4724 H       0      f0     0.0271
    927 C            9.5037    -4.5470    -2.7833 C     101    f101    -0.0024
    928 C           10.5442    -5.5846    -2.8086 C     101    f101     0.0006
    929 C           11.0276    -4.9031    -6.1255 C       0      f0    -0.0000
    930 C           11.3026    -5.7925    -3.9449 C       0      f0    -0.0006
    931 C           11.6465    -4.6854    -4.9605 C       0      f0    -0.0188
    932 H           12.4427    -3.8385    -4.8884 H       0      f0     0.0168
    933 C           13.4390    -2.3472    -2.2307 C      49     f49     0.0035
    934 H           13.1234    -5.5318    -2.5460 H       0      f0     0.0227
    935 C           14.9437    -1.6800    -3.7701 C       2      f2    -0.0020
    936 C          -14.5907     1.1117    -5.8818 C       0      f0    -0.0197
    937 H          -14.6774     0.0014    -5.6194 H       0      f0     0.0177
    938 C          -13.9998    -1.9784    -2.5229 C      47     f47    -0.0056
    939 C          -13.3871     1.6562    -4.1654 C       0      f0    -0.0075
    940 H          -12.5965    -0.0967    -4.0333 H       0      f0     0.0174
    941 C          -12.6391     0.8329    -3.5217 C       0      f0    -0.0214
    942 C          -11.3576     1.0731    -2.6407 C       0      f0    -0.0042
    943 H          -11.1191    -0.4024    -5.2201 H       0      f0     0.0194
    944 C          -10.2397    -0.9045    -5.6218 C       0      f0    -0.0171
    945 C          -10.1774     0.0945    -2.6513 C       0      f0    -0.0014
    946 C           -8.9251    -0.4921    -5.0031 C       0      f0    -0.0189
    947 C           -9.1176     0.2070    -3.6372 C       0      f0    -0.0118
    948 H           -7.9544     0.2523    -3.7060 H       0      f0     0.0149
    949 H           -8.1479    -0.9583    -5.3938 H       0      f0     0.0222
    950 H           -5.9814     1.1997    -3.6863 H       0      f0     0.0167
    951 C           -5.8159    -2.1597    -3.5707 C      20     f20    -0.0272
    952 H           -5.4815    -1.8718    -4.5551 H       0      f0     0.0228
    953 C           -5.2505     1.4064    -4.5589 C       0      f0    -0.0139
    954 C           -5.2573    -1.6581    -2.3840 C      20     f20     0.0013
    955 H           -4.5032     1.3993    -6.3016 H       0      f0     0.0163
    956 C           -4.3834     0.1959    -4.0350 C       0      f0    -0.0038
    957 C           -4.4756    -0.4451    -2.6388 C      20     f20    -0.0214
    958 C           -4.2005    -0.4887    -5.2957 C       0      f0    -0.0136
    959 C           -3.6322    -1.0751    -6.3263 C       0      f0     0.0152
    960 H           -3.4223    -0.6867    -2.2163 H       0      f0     0.0194
    961 C           -2.1146    -1.7176    -6.4886 C       0      f0    -0.1032
    962 C           -1.2637     1.6085    -5.4080 C     102    f102     0.2286
    963 C           -1.5036     0.1267    -5.5712 C       0      f0    -0.0243
    964 C           -0.9474    -1.2419    -5.8219 C       0      f0     0.0354
    965 H            0.1762    -0.9349    -3.5992 H       0      f0     0.0295
    966 C            0.3766    -1.6351    -5.6281 C       0      f0     0.0088
    967 C            0.9628    -1.6145    -4.0833 C       0      f0    -0.0207
    968 H            2.2402    -0.1748    -4.1902 H       0      f0     0.0393
    969 C            3.1106     0.4881    -4.6882 C       0      f0    -0.0078
    970 C            3.2202     1.7591    -5.3741 C       0      f0     0.0476
    971 C            4.2569    -0.3765    -2.9810 C       0      f0    -0.0020
    972 C            4.5264     0.3714    -4.1899 C       0      f0    -0.0008
    973 C            5.9745     0.9257    -4.8334 C       0      f0    -0.0482
    974 H            6.0067     0.9919    -5.9972 H       0      f0     0.0169
    975 H            6.8658     1.5553    -4.5176 H       0      f0     0.0232
    976 H            6.2745    -0.1203    -4.8582 H       0      f0     0.0170
    977 H            8.1870    -1.1049    -5.9445 H       0      f0     0.0158
    978 H            8.2118     1.3706    -5.9481 H       0      f0     0.0184
    979 C            9.3718     0.2207    -2.2440 C       3      f3     0.0150
    980 C            9.9160     1.2438    -3.2782 C       3      f3    -0.0034
    981 C           11.0808     1.2854    -3.8040 C       3      f3    -0.0048
    982 C           11.2206    -1.2703    -2.3074 C       3      f3     0.0065
    983 C           11.8574    -0.1512    -3.2205 C       3      f3    -0.0342
    984 H           12.1777    -0.4662    -4.2726 H       0      f0     0.0174
    985 H           12.6688     0.3126    -2.5895 H       0      f0     0.0234
    986 C           12.8715     1.8850    -5.3515 C     103    f103    -0.0129
    987 H           12.9040    -1.9482    -4.3406 H       0      f0     0.0132
    988 C           13.5540    -1.5721    -3.5053 C       2      f2    -0.0264
    989 H           13.7460     0.9747    -4.7542 H       0      f0     0.0148
    990 H          -14.1163     6.2958    -2.9498 H       0      f0     0.0089
    991 H          -13.8562     3.9295    -4.2070 H       0      f0     0.0144
    992 C          -13.7770     3.6918    -5.3299 C       0      f0    -0.0204
    993 C          -13.7566     2.2422    -5.2478 C       0      f0     0.0069
    994 C          -13.1224     4.4662    -6.4313 C       0      f0     0.0057
    995 C          -11.9470     4.9670    -5.8921 C       0      f0    -0.0277
    996 H          -11.3604     4.7459    -5.0193 H       0      f0     0.0176
    997 C          -11.6558     6.0856    -6.6887 C       0      f0     0.0043
    998 H           -9.5938     5.5140    -4.9786 H       0      f0     0.0220
    999 H           -9.3560     3.5396    -5.1364 H       0      f0     0.0235
   1000 C           -9.1696     4.5827    -4.7641 C      79     f79    -0.0397
   1001 C           -9.2061     5.3101    -2.8280 C       0      f0    -0.0078
   1002 C           -8.3411     4.5350    -3.4229 C      79     f79     0.0040
   1003 C           -8.1012     4.8863    -5.9477 C      79     f79     0.0010
   1004 C           -7.8163     3.4314    -6.3884 C       0      f0    -0.0236
   1005 H           -7.1558     6.6476    -4.6349 H       0      f0     0.0160
   1006 H           -7.2361     2.6002    -2.8297 H       0      f0     0.0191
   1007 C           -6.8573     4.4699    -3.2753 C      79     f79     0.0029
   1008 C           -6.6145     2.7376    -6.0050 C       0      f0    -0.0003
   1009 C           -6.9645     5.7197    -5.7713 C      79     f79    -0.0126
   1010 C           -6.4667     3.2705    -2.4137 C      50     f50    -0.0177
   1011 C           -6.2401     5.4366    -4.1433 C      79     f79    -0.0088
   1012 C           -5.4671     1.9056    -5.6592 C       0      f0    -0.0154
   1013 C           -5.0250     2.6783    -2.4256 C     104    f104    -0.0029
   1014 C           -4.7942     5.7270    -4.0700 C      50     f50    -0.0010
   1015 H           -4.3195     4.1006    -5.1084 H       0      f0     0.0223
   1016 C           -4.1398     3.6710    -2.6599 C     104    f104     0.0089
   1017 C           -4.0210     4.3822    -4.1507 C      50     f50    -0.0161
   1018 H           -3.2674     2.3853    -5.9231 H       0      f0     0.0175
   1019 C           -2.3785     4.8432    -4.1625 C       0      f0     0.0029
   1020 C           -2.1569     2.6582    -5.4882 C     102    f102    -0.0538
   1021 C           -1.5720     3.9653    -4.8470 C     102    f102    -0.0164
   1022 C           -1.4677     5.3380    -3.1861 C       0      f0    -0.0083
   1023 C           -0.5060     5.7019    -2.3168 C       0      f0    -0.0061
   1024 C           -0.0954     3.7357    -5.1341 C     102    f102     0.1896
   1025 O            0.1680     2.0767    -5.3805 O     102    f102    -0.4614
   1026 C            0.5238     4.8668    -5.4567 C       0      f0    -0.0426
   1027 C            1.0629     6.1153    -5.8564 C       0      f0     0.0150
   1028 H            3.3604     5.4795    -5.7422 H       0      f0     0.0186
   1029 C            3.4526     2.9844    -6.1696 C       0      f0    -0.0253
   1030 H            3.3580     3.8373    -5.5137 H       0      f0     0.0293
   1031 C            4.7579     4.1034    -3.0637 C       3      f3     0.0041
   1032 C            4.6370     5.3501    -2.3465 C       0      f0    -0.0237
   1033 C            5.7827     3.8819    -4.0847 C       3      f3    -0.0242
   1034 H            5.8883     4.3792    -5.0148 H       0      f0     0.0211
   1035 C            6.7859     3.1269    -3.4483 C       3      f3    -0.0016
   1036 H            8.1436     4.1721    -6.2103 H       0      f0     0.0214
   1037 C            8.1024     3.0803    -4.0692 C       3      f3    -0.0043
   1038 C            8.4288     3.5154    -5.3814 C       0      f0    -0.0227
   1039 C            8.7683     2.0710    -3.2348 C       3      f3    -0.0069
   1040 C            9.8037     4.1364    -5.3504 C       0      f0    -0.0017
   1041 C           10.5143     5.0077    -4.3978 C       0      f0    -0.0007
   1042 C           10.8101     3.0619    -5.6093 C     103    f103     0.0009
   1043 C           11.4416     4.3245    -2.2257 C       0      f0    -0.0030
   1044 C           11.3173     5.3047    -3.2315 C       0      f0    -0.0017
   1045 C           11.5517     4.9699    -6.5013 C       0      f0    -0.0080
   1046 C           11.6570     2.2578    -4.7437 C     103    f103    -0.0019
   1047 C           11.6779     3.4784    -6.6470 C     103    f103    -0.0026
   1048 C           13.0113     2.6057    -6.5473 C     103    f103     0.0044
   1049 C          -14.8550     9.9257    -5.8368 C       0      f0    -0.0206
   1050 C          -14.0491     9.6133    -5.0418 C       0      f0     0.0493
   1051 H          -13.7895     7.8608    -3.3784 H       0      f0     0.0171
   1052 C          -12.9635     8.5268    -3.2145 C      80     f80    -0.0184
   1053 C          -12.9966     9.5845    -4.3220 C      80     f80    -0.0337
   1054 H          -11.6534     6.0424    -3.3122 H       0      f0     0.0174
   1055 C          -11.5854     8.0277    -2.8406 C      80     f80     0.0055
   1056 C          -11.1835     6.6943    -2.6890 C       0      f0    -0.0221
   1057 C          -10.5519     9.1977    -2.8066 C      80     f80     0.0067
   1058 C          -10.1158     8.2334    -5.9823 C       0      f0     0.0358
   1059 C           -8.8105     8.8925    -5.8618 C       0      f0    -0.0136
   1060 C           -8.5452     9.9684    -4.9973 C       0      f0    -0.0169
   1061 H           -8.0271     8.8073    -6.6894 H       0      f0     0.0217
   1062 H           -7.6430    10.2849    -4.5707 H       0      f0     0.0129
   1063 H           -5.7822     8.9177    -5.1656 H       0      f0     0.0153
   1064 C           -4.8195     9.5200    -5.2716 C      51     f51    -0.0095
   1065 C           -4.1898     6.9855    -4.2040 C       0      f0    -0.0067
   1066 C           -3.2254     9.1286    -5.2041 C      51     f51     0.0020
   1067 C           -3.1442     7.8881    -4.4119 C       0      f0    -0.0174
   1068 C           -2.1939    10.0033    -5.0260 C      51     f51    -0.0045
   1069 H           -2.4978     6.9133    -4.4370 H       0      f0     0.0192
   1070 H            0.1393     7.9185    -6.4355 H       0      f0     0.0155
   1071 H            0.7637     7.1471    -3.4500 H       0      f0     0.0222
   1072 C            1.2601     7.1048    -2.5925 C       0      f0    -0.0229
   1073 H            2.5613     8.3346    -4.5337 H       0      f0     0.0220
   1074 C            2.4869     6.2277    -5.7284 C       0      f0    -0.0216
   1075 C            2.4533     7.8052    -2.3399 C       0      f0    -0.0031
   1076 C            2.9042     9.2386    -5.0265 C       0      f0    -0.0217
   1077 C            4.2079     9.0599    -4.5719 C       0      f0    -0.0016
   1078 H            4.7257     7.1879    -6.2572 H       0      f0     0.0226
   1079 C            5.1791     7.9352    -2.7122 C       0      f0    -0.0210
   1080 C            5.0697     6.4141    -3.2185 C       0      f0     0.0000
   1081 C            5.2819     8.7335    -3.9901 C       0      f0     0.0082
   1082 C            5.7223     6.7303    -5.8800 C       0      f0    -0.0146
   1083 C            5.5515     6.3702    -4.4573 C       0      f0    -0.0086
   1084 C            6.6882     9.0922    -4.3503 C       0      f0    -0.0482
   1085 C            6.8981     9.1491    -5.7958 C       0      f0     0.0366
   1086 C            7.8318     9.0287    -3.4171 C     105    f105     0.2472
   1087 H            7.9191     6.4610    -6.3286 H       0      f0     0.0269
   1088 C            7.8165     7.9890    -2.5700 C     105    f105    -0.0576
   1089 C            9.1213     7.2643    -2.1767 C     105    f105    -0.0338
   1090 O            9.2316     9.4335    -3.7278 O     105    f105    -0.4935
   1091 C            9.9628     8.1450    -3.2076 C     105    f105     0.2242
   1092 C           11.1798     7.6525    -3.5218 C     106    f106    -0.0478
   1093 C           11.8531     7.6524    -6.2188 C       0      f0    -0.0543
   1094 C           11.7273     8.2978    -4.9276 C     106    f106     0.0616
   1095 C           12.0293     6.6045    -2.6498 C     106    f106    -0.0130
   1096 H           12.0777     9.5354    -2.5569 H       0      f0     0.0529
   1097 C           12.6778     9.7108    -3.5202 C       0      f0    -0.0116
   1098 C           13.0841     8.4079    -4.3667 C     106    f106    -0.0232
   1099 C           13.4486     7.3574    -3.1686 C     106    f106    -0.0322
   1100 H           13.8387     8.5695    -5.1684 H       0      f0     0.0422
   1101 H           14.0333     6.6252    -3.4652 H       0      f0     0.0177
   1102 O          -12.5319    12.2145    -4.3255 O       0      f0    -0.4554
   1103 H          -12.8636    13.5795    -5.6298 H       0      f0     0.1020
   1104 C          -12.1941    10.9339    -3.8790 C      80     f80     0.2731
   1105 C          -10.7310    10.5484    -3.4426 C      80     f80    -0.0424
   1106 H          -10.2455    12.6482    -6.5472 H       0      f0     0.0442
   1107 C           -9.9170    13.6563    -5.9011 C       5      f5    -0.0132
   1108 H           -9.7576    12.0440    -4.4534 H       0      f0     0.0356
   1109 C           -9.7766    10.8321    -4.5249 C       0      f0     0.0141
   1110 C           -8.5227    14.0088    -5.5425 C       5      f5    -0.0050
   1111 H           -7.4734    12.5178    -5.8527 H       0      f0     0.0219
   1112 H           -7.3141    14.1278    -2.7966 H       0      f0     0.0188
   1113 C           -7.4313    13.3197    -6.4660 C       5      f5    -0.0186
   1114 H           -7.4681    10.0747    -2.6857 H       0      f0     0.0157
   1115 C           -6.5957    13.6358    -3.1392 C       0      f0    -0.0244
   1116 H           -5.9376    10.2810    -3.5655 H       0      f0     0.0182
   1117 C           -5.0943    14.0867    -3.2464 C       0      f0    -0.0232
   1118 C           -5.0576    10.3755    -4.0443 C      51     f51    -0.0243
   1119 C           -4.5810    10.8342    -6.1750 C       0      f0    -0.0163
   1120 H           -4.4412    13.4173    -3.8969 H       0      f0     0.0202
   1121 H           -4.4694    11.7006    -5.7615 H       0      f0     0.0254
   1122 C           -3.8728    10.6233    -3.2285 C      51     f51     0.0006
   1123 C           -2.4766    10.5785    -2.5960 C     107    f107     0.0008
   1124 C           -1.8599    10.7941    -3.8928 C     107    f107     0.0028
   1125 C           -1.6948    10.5668    -6.0708 C       0      f0     0.0000
   1126 C           -0.8092    13.4190    -5.8543 C      98     f98     0.0033
   1127 C           -0.5616    11.2621    -3.3874 C     107    f107     0.0029
   1128 C            0.2765    13.2482    -4.6521 C      98     f98     0.0037
   1129 C            0.5594    11.7289    -4.2407 C      98     f98    -0.0170
   1130 C            0.7698    11.4617    -5.7929 C      98     f98     0.0047
   1131 C            1.0010    14.4002    -4.0882 C       0      f0     0.0062
   1132 H            1.3961    11.3692    -3.6114 H       0      f0     0.0176
   1133 C            1.8368    10.9930    -5.9883 C       0      f0    -0.0109
   1134 C            2.3298    13.6483    -4.2670 C       0      f0    -0.0187
   1135 H            3.1353    13.6326    -4.8853 H       0      f0     0.0187
   1136 C            2.9352    13.8549    -2.9797 C       0      f0    -0.0201
   1137 C            3.1635    10.4835    -5.8476 C       0      f0     0.0030
   1138 H            2.9179    11.3840    -3.7408 H       0      f0     0.0205
   1139 C            3.6923    11.5092    -2.9568 C       0      f0    -0.0188
   1140 C            4.0042    12.9278    -2.7235 C       0      f0     0.0015
   1141 C            4.3388    10.8527    -6.5988 C      45     f45     0.0029
   1142 C            5.4186    13.4105    -2.2677 C       0      f0    -0.0081
   1143 H            5.7652    10.7202    -2.7860 H       0      f0     0.0281
   1144 H            7.8706    13.6130    -4.8322 H       0      f0     0.0218
   1145 H            8.4208    12.9550    -6.4676 H       0      f0     0.0229
   1146 C            8.5365    12.9165    -5.4868 C       0      f0    -0.0372
   1147 C            9.4572    13.9060    -2.5448 C       0      f0    -0.0031
   1148 C            9.6907    12.3739    -5.1786 C       0      f0     0.0306
   1149 C           10.1574    13.0246    -2.3733 C       0      f0     0.0032
   1150 C           10.8158    11.8395    -4.6573 C       0      f0     0.0083
   1151 C           11.0940    12.3367    -3.2007 C       0      f0     0.0083
   1152 H           11.5261    11.3202    -5.1667 H       0      f0     0.0434
   1153 C           13.1373    10.6982    -3.9585 C       0      f0     0.0168
   1154 C           13.5439    13.1907    -3.3671 C      19     f19     0.2188
   1155 C           13.5363    11.9330    -4.2205 C      19     f19    -0.0384
   1156 C           13.9255    12.6282    -5.6428 C      19     f19    -0.0337
   1157 C           14.1558    13.9766    -5.3181 C      19     f19     0.2190
   1158 C           14.5070    10.7000    -6.6386 C       0      f0     0.2506
   1159 C          -14.9283   -11.6694     2.1178 C       0      f0     0.0017
   1160 C          -13.8102   -11.5925     1.2058 C       0      f0    -0.0032
   1161 C          -13.0450   -11.4179     0.2433 C       0      f0     0.0200
   1162 H          -12.0205   -10.3812    -1.0244 H       0      f0     0.0442
   1163 C          -11.8107   -11.4425    -0.6922 C       0      f0    -0.0616
   1164 H          -12.1995   -12.2286    -1.4324 H       0      f0     0.0487
   1165 H          -10.8676   -11.5113    -0.2377 H       0      f0     0.0368
   1166 C          -10.9392   -14.0296     1.7861 C       6      f6    -0.0099
   1167 H           -9.5478   -11.6603    -1.6571 H       0      f0     0.0182
   1168 C           -9.2810   -14.1579     0.1991 C       0      f0     0.0098
   1169 C           -8.6365   -11.4310    -1.2044 C      46     f46    -0.0340
   1170 C           -8.1043   -14.4685     0.1342 C       0      f0     0.0253
   1171 H           -8.0720   -12.2672    -0.7158 H       0      f0     0.0409
   1172 C           -6.3352   -10.4068    -1.6352 C      46     f46    -0.0018
   1173 H           -4.4895   -13.6221     1.4299 H       0      f0     0.0404
   1174 C           -4.8412   -13.8890    -2.0618 C       0      f0     0.0009
   1175 C           -4.8844   -14.4326    -0.6073 C       0      f0    -0.0036
   1176 C           -4.4784   -11.0392    -0.0610 C       0      f0    -0.0209
   1177 C           -4.3773   -11.6042     1.2673 C       0      f0     0.0167
   1178 H           -4.3088   -11.9461    -0.7836 H       0      f0     0.0244
   1179 H           -1.7066   -11.6364    -0.7315 H       0      f0     0.0222
   1180 C           -1.3243   -12.6735     1.2568 C       0      f0    -0.0039
   1181 C           -1.2388   -13.9055     0.6324 C       0      f0    -0.0025
   1182 C           -1.2793   -11.0616    -1.4594 C      52     f52    -0.0158
   1183 C           -1.0490   -11.5298     1.8724 C       0      f0    -0.0157
   1184 C           -0.3717   -10.5347     1.0006 C      52     f52    -0.0003
   1185 C            0.2751   -14.4264     0.4528 C       0      f0     0.0003
   1186 C            0.2356   -10.9661    -1.1304 C      52     f52     0.0011
   1187 C            0.7185   -11.1549     0.2139 C      52     f52     0.0029
   1188 C            1.1807   -10.9558    -2.1935 C       0      f0     0.0005
   1189 C            1.5672   -12.3168     0.6394 C       0      f0    -0.0153
   1190 C            2.0560   -12.0322     1.9130 C     108    f108     0.0072
   1191 H            2.0949   -13.0187    -0.1843 H       0      f0     0.0188
   1192 C            3.5168   -13.9480     1.6282 C       0      f0     0.0012
   1193 C            4.5699   -10.6565     0.6390 C       0      f0    -0.0131
   1194 H            4.2379   -11.3532    -0.2310 H       0      f0     0.0172
   1195 C            5.5073   -11.6348     1.4000 C       0      f0    -0.0629
   1196 H            5.6347   -12.3486     0.6645 H       0      f0     0.0257
   1197 H            6.3463   -11.1200     1.5750 H       0      f0     0.0186
   1198 C            7.6529   -14.1690     0.0194 C       0      f0     0.0009
   1199 H            8.6671   -12.7688     1.7994 H       0      f0     0.0139
   1200 C            8.4452   -13.0246     0.6464 C       0      f0    -0.0281
   1201 H            9.7330   -10.5870     1.5737 H       0      f0     0.0176
   1202 C            9.5658   -12.8506    -0.2577 C       0      f0    -0.0041
   1203 C           10.2044   -11.2754     2.1644 C       0      f0    -0.0473
   1204 H           10.2744   -12.2669     1.7726 H       0      f0     0.0206
   1205 C           10.6545   -12.7811    -0.9498 C       0      f0    -0.0104
   1206 H           11.5480   -10.7195    -1.4187 H       0      f0     0.0148
   1207 H           12.0631   -14.4121    -1.7861 H       0      f0     0.0434
   1208 C           12.0318   -12.9563    -0.3473 C       0      f0     0.0022
   1209 C           12.3555   -10.7580    -0.5157 C       0      f0    -0.0146
   1210 C           12.6502   -11.8244     0.3969 C       0      f0     0.0083
   1211 C           12.5195   -14.1435    -0.9424 C       0      f0    -0.0144
   1212 C           13.6116   -11.8626     1.6155 C       0      f0     0.0023
   1213 C          -14.4762    -7.9155     0.6334 C      15     f15     0.0019
   1214 C          -14.4230    -6.4753     0.2983 C      15     f15     0.0004
   1215 C          -13.1730    -8.4157     0.4367 C      15     f15    -0.0123
   1216 H          -13.0536    -9.4799     0.6943 H       0      f0     0.0238
   1217 C          -12.1944    -7.4597     1.1152 C      53     f53     0.0007
   1218 C          -11.1353    -7.6530     0.5139 C      53     f53     0.0134
   1219 C           -9.9560    -7.5690    -0.0186 C      53     f53    -0.0083
   1220 C           -8.8576    -9.8730    -0.6997 C      46     f46     0.0207
   1221 C           -8.6955    -7.9773     0.4155 C      21     f21     0.0157
   1222 C           -8.5782    -6.3097     2.0803 C      21     f21     0.0181
   1223 C           -7.9219    -9.0188    -0.2628 C      46     f46    -0.0056
   1224 C           -7.8374    -7.2780     1.2779 C      21     f21    -0.0107
   1225 C           -6.7222    -7.8357     2.0519 C      21     f21     0.0034
   1226 C           -6.7117    -9.5083     0.6046 C      46     f46     0.0231
   1227 C           -6.2675    -9.0480     1.7773 C      21     f21     0.0031
   1228 C           -5.7170   -10.2041    -0.3242 C      46     f46     0.0010
   1229 C           -5.3062    -6.8614    -1.6532 C       0      f0    -0.0009
   1230 C           -4.0532    -6.6745    -0.9440 C       0      f0    -0.0232
   1231 H           -3.9561    -7.4553    -0.0171 H       0      f0     0.0141
   1232 H           -2.4349    -9.0842    -2.2412 H       0      f0     0.0175
   1233 C           -1.6371    -9.5118    -1.5688 C      52     f52    -0.0190
   1234 C           -0.8412    -8.5827    -0.6169 C      52     f52    -0.0010
   1235 C           -0.7948    -7.1997    -0.9121 C       0      f0    -0.0025
   1236 C           -0.4759    -9.2145     0.7230 C      52     f52    -0.0054
   1237 C           -0.0138    -8.4178     1.5012 C       0      f0     0.0055
   1238 C            1.5191    -6.5811     1.4407 C       0      f0     0.0034
   1239 H            1.7623    -7.8342    -0.7843 H       0      f0     0.0232
   1240 C            2.7137    -7.2105    -0.9865 C       0      f0    -0.0177
   1241 C            3.4914    -6.9656    -2.1591 C       0      f0     0.0017
   1242 C            5.0118    -9.3427     0.4295 C       0      f0    -0.0096
   1243 C            5.7651    -8.2414     0.2250 C       0      f0     0.0004
   1244 C            6.0599    -7.1190     1.1264 C       0      f0    -0.0026
   1245 C            6.4749    -8.1580    -1.1835 C       0      f0    -0.0497
   1246 H            6.6351    -7.0767    -1.0779 H       0      f0     0.0277
   1247 C            7.2272    -6.9688     2.1604 C       0      f0    -0.0105
   1248 H            7.3595    -8.9099    -1.0985 H       0      f0     0.0176
   1249 H            8.1033    -7.2609     1.3763 H       0      f0     0.0132
   1250 C           10.4635    -6.4528    -1.6000 C     101    f101    -0.0216
   1251 H           10.8244    -7.3524    -1.5006 H       0      f0     0.0180
   1252 H           11.3048    -9.0636     1.1283 H       0      f0     0.0182
   1253 H           11.9207    -9.3287    -2.2232 H       0      f0     0.0116
   1254 C           12.1127    -8.2077     1.2485 C      54     f54    -0.0201
   1255 C           12.3149    -6.8556     0.9101 C      55     f55    -0.0001
   1256 C           13.0103    -8.9987    -1.7978 C      54     f54    -0.0400
   1257 C           13.3008    -7.5501    -1.5916 C      54     f54     0.0133
   1258 C           13.2952    -9.2209     1.0549 C      54     f54    -0.0001
   1259 C           13.2430    -9.6992    -0.3200 C      54     f54     0.0198
   1260 C           13.2088    -6.8567    -0.2860 C      55     f55    -0.0021
   1261 C           14.5301    -8.6680     1.6722 C       0      f0    -0.0050
   1262 C          -14.8240    -3.4479    -0.7188 C      49     f49    -0.0043
   1263 C          -13.4086    -5.2897     0.6400 C      56     f56     0.0049
   1264 C          -13.4359    -3.8154    -0.0716 C      56     f56     0.0012
   1265 H          -13.2757    -3.0132     0.6648 H       0      f0     0.0474
   1266 C          -12.3146    -3.9653    -2.3467 C      48     f48     0.2852
   1267 C          -12.3958    -5.8927     1.4232 C      56     f56    -0.0111
   1268 C          -12.4351    -3.6903    -1.0371 C      56     f56    -0.0756
   1269 C          -11.3043    -4.7466     1.3178 C      56     f56     0.0067
   1270 C          -11.1509    -3.3268    -0.6696 C      56     f56     0.0184
   1271 C          -10.5678    -4.5539     0.0681 C      56     f56     0.0111
   1272 C          -10.4377    -5.6215    -1.7424 C      48     f48     0.1559
   1273 C          -10.5699    -2.1956    -1.3401 C       0      f0    -0.0001
   1274 C           -9.8237    -5.8551    -0.1001 C      53     f53    -0.0551
   1275 H           -9.6335    -6.4639     1.8303 H       0      f0     0.0247
   1276 H           -8.7820    -5.7771     0.2716 H       0      f0     0.0322
   1277 H           -8.6923    -4.6164    -1.4537 H       0      f0     0.0172
   1278 H           -8.3438    -3.3659    -0.3745 H       0      f0     0.0412
   1279 C           -7.5484    -2.8654     0.0813 C       0      f0    -0.0660
   1280 C           -7.1395    -3.3513     1.3116 C      11     f11     0.2726
   1281 C           -7.0516    -2.5654    -1.2570 C      20     f20     0.0134
   1282 C           -6.4293    -5.9059    -1.2595 C       0      f0    -0.0245
   1283 H           -6.3790    -5.2150    -0.4710 H       0      f0     0.0190
   1284 C           -5.7779    -3.2700     1.4445 C      11     f11    -0.1348
   1285 H           -4.9874    -2.9304     0.7315 H       0      f0     0.0576
   1286 C           -3.6210    -5.3762    -0.6242 C     109    f109    -0.0009
   1287 C           -3.6399    -5.8355     2.1919 C       0      f0     0.0080
   1288 C           -3.2985    -5.2941     0.9520 C     109    f109     0.0055
   1289 C           -2.7485    -4.8759    -1.6308 C     109    f109    -0.0076
   1290 C           -2.1355    -4.4574     0.5961 C     109    f109    -0.0003
   1291 C           -2.1086    -3.8545    -0.7908 C     109    f109    -0.0017
   1292 C           -2.0403    -3.2407     1.2622 C       0      f0     0.0164
   1293 C           -1.1271    -2.8969    -1.0287 C       0      f0    -0.0221
   1294 H            0.2687    -4.9490    -1.1093 H       0      f0     0.0191
   1295 C           -0.3224    -5.9415    -1.5662 C     100    f100    -0.0150
   1296 C            0.0251    -2.7282    -0.1312 C       0      f0    -0.0003
   1297 C            0.9073    -2.5028     0.7548 C       0      f0    -0.0167
   1298 C            2.6348    -5.7365     1.1762 C       0      f0    -0.0248
   1299 H            2.9978    -4.7030     1.2388 H       0      f0     0.0175
   1300 C            3.0480    -6.1536    -0.1732 C       0      f0     0.0065
   1301 C            4.5646    -5.5455    -0.4142 C       0      f0     0.0078
   1302 H            5.1254    -3.2404     0.2248 H       0      f0     0.0174
   1303 C            4.7717    -4.0540    -0.5066 C       0      f0    -0.0198
   1304 C            5.5415    -5.9597     0.4740 C       0      f0    -0.0221
   1305 C            5.9052    -3.3698    -1.4249 C       0      f0    -0.0156
   1306 H            6.3539    -5.2300     0.5545 H       0      f0     0.0166
   1307 H            6.6732    -3.8569    -0.8233 H       0      f0     0.0174
   1308 C            8.1392    -2.6608     2.0318 C       0      f0    -0.0025
   1309 C            8.4183    -3.0721     0.6958 C       0      f0    -0.0075
   1310 C            8.7877    -3.4555    -0.4472 C       0      f0    -0.0215
   1311 H            8.1298    -2.5551    -1.0987 H       0      f0     0.0133
   1312 C            9.6066    -4.3107    -1.1182 C     101    f101     0.0007
   1313 H            9.9497    -5.7690     0.2508 H       0      f0     0.0185
   1314 C            9.9535    -5.5820    -0.7182 C     101    f101    -0.0195
   1315 H           10.9226    -2.2382    -0.3609 H       0      f0     0.0311
   1316 H           11.1806    -4.0741     1.4667 H       0      f0     0.0223
   1317 C           11.8267    -2.9223    -0.4471 C      49     f49    -0.0095
   1318 C           12.1912    -4.4436     1.6723 C      55     f55    -0.0198
   1319 C           11.9345    -2.3924    -1.8476 C      49     f49    -0.0087
   1320 C           12.5159    -5.8042     2.0046 C      55     f55    -0.0085
   1321 C           12.7871    -3.6877     0.3083 C      55     f55     0.0185
   1322 C           14.0739    -4.2174    -0.1522 C      55     f55     0.0015
   1323 C           14.3138    -5.8994    -0.1797 C      55     f55     0.0009
   1324 C           14.7061    -2.6908    -1.7932 C      49     f49    -0.0029
   1325 C          -14.7413    -0.6970     0.3337 C      12     f12    -0.0254
   1326 C          -14.5650     1.4884    -0.6672 C      12     f12     0.0048
   1327 H          -14.8971    -1.7888     0.2606 H       0      f0     0.0525
   1328 C          -13.9528     0.1773    -0.5399 C      12     f12    -0.0050
   1329 H          -13.5002    -1.0044    -2.6454 H       0      f0     0.0183
   1330 H          -13.3476     0.9937     2.2046 H       0      f0     0.0736
   1331 C          -12.5057     0.5514    -0.3031 C       0      f0     0.0037
   1332 C          -11.9221     0.7958    -1.4822 C       0      f0    -0.0085
   1333 C          -11.7230     0.5154     0.9525 C       0      f0     0.0108
   1334 C          -10.4571     1.1902     0.6508 C       0      f0    -0.0095
   1335 C          -10.0964    -1.1950    -1.7678 C       0      f0     0.0030
   1336 C           -9.3954     1.8948     0.1313 C       0      f0    -0.0048
   1337 C           -7.4010     0.7938    -0.7188 C       0      f0    -0.0112
   1338 H           -7.3841     0.6586    -1.8967 H       0      f0     0.0168
   1339 H           -6.2973     0.5946     1.3073 H       0      f0     0.0206
   1340 C           -6.5832     0.2254     0.1417 C       0      f0    -0.0029
   1341 C           -5.8647    -1.6173    -1.2345 C      20     f20    -0.0039
   1342 C           -5.4149    -0.6354    -0.4475 C      20     f20     0.0040
   1343 C           -4.5772     0.2167    -1.1786 C      20     f20    -0.0084
   1344 C           -4.4414     1.6821    -1.3976 C     104    f104    -0.0023
   1345 H           -3.0589     0.0890     0.6258 H       0      f0     0.0263
   1346 C           -2.3246    -1.8401     1.0457 C       0      f0     0.0119
   1347 C           -2.2150    -0.3943     0.8915 C       0      f0    -0.0188
   1348 C           -1.3675    -0.0000     2.0373 C       0      f0    -0.0156
   1349 C            0.8244    -1.7764     2.1920 C       0      f0     0.0037
   1350 H            1.2974     1.5332     1.4867 H       0      f0     0.0215
   1351 H            1.8465    -2.2798    -0.0273 H       0      f0     0.0153
   1352 C            3.4812     1.9664    -0.1161 C       3      f3     0.0056
   1353 H            3.4888    -1.5786    -1.5109 H       0      f0     0.0209
   1354 C            3.6303    -0.7941     1.7931 C       0      f0    -0.0048
   1355 C            4.4333    -1.3533    -1.9423 C       0      f0    -0.0134
   1356 C            4.3025    -0.6972     0.6824 C       0      f0    -0.0067
   1357 C            4.9074     1.7614    -0.2818 C       3      f3    -0.0161
   1358 H            5.7026     1.6888     0.5654 H       0      f0     0.0323
   1359 C            5.5891    -1.1561    -0.0313 C       0      f0     0.0089
   1360 C            5.7641    -1.6985    -1.5826 C       0      f0    -0.0162
   1361 C            6.4821    -0.2121     0.5344 C       0      f0    -0.0585
   1362 H            6.6508    -1.1885    -2.2407 H       0      f0     0.0146
   1363 C            7.5448     0.4033     0.9665 C     128    f128     0.1262
   1364 C            7.9332     1.8949    -2.0805 C       3      f3     0.0217
   1365 C            8.4661     0.8769    -1.4661 C       3      f3    -0.0580
   1366 C            8.5581     0.7726     0.0040 C     128    f128     0.1929
   1367 O            8.6815     1.5646     1.2357 O     128    f128    -0.4494
   1368 H            9.4776    -1.3447    -0.6860 H       0      f0     0.0179
   1369 C            9.8956    -0.9389    -1.7489 C       3      f3    -0.0239
   1370 O           13.0324    -0.1711     1.9711 O      12     f12    -0.4582
   1371 C           14.1047     1.1128    -0.0610 C      12     f12    -0.0607
   1372 C           14.0539    -0.0093     0.7194 C      12     f12     0.2407
   1373 C          -14.5633     3.0908     1.1505 C       0      f0     0.0157
   1374 C          -13.9749     2.6543    -0.0972 C       0      f0    -0.0054
   1375 C          -12.9918     3.4945    -0.8484 C       0      f0    -0.0187
   1376 C          -12.8565     5.9864     0.4564 C       0      f0     0.0207
   1377 C          -12.8863     6.0356     2.0203 C      57     f57    -0.0049
   1378 C          -12.8542     4.7795    -0.2066 C       0      f0    -0.0078
   1379 H          -11.8764     3.2531    -1.1544 H       0      f0     0.0186
   1380 H           -9.9195     5.3759     1.7886 H       0      f0     0.0315
   1381 C           -9.4578     6.1252    -0.7044 C      58     f58    -0.0147
   1382 C           -9.4095     4.5887     1.1521 C       0      f0    -0.0224
   1383 C           -9.1962     3.4652     1.9681 C       0      f0    -0.0007
   1384 C           -9.1173     4.6132    -0.1929 C      58     f58     0.0059
   1385 C           -8.0855     2.1310    -0.2191 C       0      f0    -0.0040
   1386 C           -8.3096     3.5746    -0.7057 C      58     f58    -0.0029
   1387 C           -7.0046     4.1939    -1.1048 C      58     f58     0.0019
   1388 C           -6.8635     5.6317    -0.9229 C      58     f58     0.0020
   1389 H           -3.8252     2.6982     1.3071 H       0      f0     0.0155
   1390 C           -3.6182     2.5914    -0.6764 C     104    f104     0.0020
   1391 C           -3.1367     3.5512    -1.5703 C     104    f104    -0.0188
   1392 C           -2.9705     2.3524     0.7367 C       0      f0    -0.0262
   1393 H           -3.2611     4.0996     2.2039 H       0      f0     0.0146
   1394 H           -2.5643     4.5063    -1.5311 H       0      f0     0.0216
   1395 C           -1.5479     2.2027     0.9838 C       0      f0     0.0044
   1396 H           -1.1686     3.3224    -0.3535 H       0      f0     0.0241
   1397 C           -0.4899     2.8407     0.3613 C       0      f0    -0.0192
   1398 C            0.6720     6.0363    -1.7571 C       0      f0     0.0075
   1399 C            0.6090     3.6018     0.9811 C       0      f0     0.0010
   1400 C            1.1285     4.6544     0.3109 C       0      f0     0.0002
   1401 C            1.6769     5.5365    -0.5608 C       0      f0    -0.0195
   1402 C            1.7004     2.6350     1.5374 C      81     f81    -0.0164
   1403 H            2.2983     2.8054    -1.8371 H       0      f0     0.0349
   1404 H            2.6069     5.9845    -0.5056 H       0      f0     0.0219
   1405 C            3.0685     2.9987     0.8251 C      81     f81    -0.0015
   1406 C            3.1847     2.5873    -1.4471 C       3      f3    -0.0190
   1407 C            4.0890     3.4604     1.7335 C      81     f81     0.0088
   1408 C            4.2387     3.1266    -2.1316 C       3      f3     0.0024
   1409 H            4.6246     5.4595    -1.1810 H       0      f0     0.0135
   1410 C            5.2583     4.2750     1.2467 C       0      f0    -0.0235
   1411 H            5.1996     4.6743     0.3231 H       0      f0     0.0165
   1412 C            5.5171     2.3499    -1.3822 C       3      f3     0.0026
   1413 C            6.6716     2.4321    -2.2442 C       3      f3    -0.0114
   1414 H            7.5934     3.6265     0.1635 H       0      f0     0.0442
   1415 H            7.7657     5.6044    -0.9664 H       0      f0     0.0198
   1416 C            8.1127     4.2946     0.7337 C       0      f0     0.0128
   1417 C            8.4913     4.3666     2.1373 C       0      f0     0.0127
   1418 C            8.2975     5.5676    -0.0020 C       0      f0    -0.0309
   1419 H            9.1088     6.1254    -2.2767 H       0      f0     0.0247
   1420 H           10.9222     2.2457    -1.7412 H       0      f0     0.0297
   1421 C           11.5083     3.3049     1.8009 C      12     f12     0.0060
   1422 C           11.4749     3.1556    -1.4633 C       0      f0    -0.0114
   1423 C           12.0889     2.0704     1.3459 C      12     f12    -0.0263
   1424 C           12.1965     4.0907     0.9602 C      12     f12    -0.0027
   1425 C           12.4587     3.3697    -0.4648 C      12     f12    -0.0008
   1426 C           12.6820     5.5292     0.8955 C       0      f0     0.0017
   1427 C           12.9305     2.0877     0.1942 C      12     f12     0.0360
   1428 C           13.6541     5.7072     0.0606 C       0      f0     0.0033
   1429 H           13.8170     3.2700     2.9618 H       0      f0     0.0433
   1430 C           14.5179     6.1055    -0.9098 C       0      f0    -0.0023
   1431 C           14.3443     3.4970     2.0119 C       0      f0    -0.0094
   1432 H          -14.7767     9.1701    -1.5538 H       0      f0     0.0239
   1433 C          -14.3644     6.4650    -1.7218 C       0      f0    -0.0242
   1434 C          -13.8399     7.4805    -1.1060 C     110    f110     0.0017
   1435 C          -13.7689     8.9593    -1.6081 C     110    f110    -0.0300
   1436 C          -12.9932     7.4334    -0.1298 C     110    f110    -0.0357
   1437 C          -12.5793     9.7984    -0.8080 C     110    f110    -0.0681
   1438 C          -12.3085     8.7817    -0.0354 C     110    f110     0.2558
   1439 H          -10.8292     9.9560     0.7448 H       0      f0     0.2818
   1440 O          -11.0414     9.0348     0.8052 O       0      f0    -0.6233
   1441 H          -10.4040     6.3364    -0.2698 H       0      f0     0.0457
   1442 C           -9.7583     6.2478    -2.2115 C       0      f0     0.0035
   1443 C           -9.4101     8.7609    -2.1395 C       0      f0     0.0037
   1444 C           -8.4503     7.3735    -0.1780 C     111    f111     0.0071
   1445 H           -8.3159     7.6437     0.9200 H       0      f0     0.0423
   1446 C           -8.5867     8.4060    -1.3117 C     111    f111     0.0131
   1447 C           -7.0373     8.9700    -1.3004 C     111    f111    -0.0033
   1448 C           -7.0751     6.8118    -0.6238 C     111    f111    -0.0030
   1449 C           -6.1829     8.0722    -0.6177 C     111    f111    -0.0176
   1450 H           -5.3543     8.3420     0.0201 H       0      f0     0.0201
   1451 H           -4.2297     7.0286     2.3586 H       0      f0     0.0142
   1452 H           -0.0091     8.6077     0.9738 H       0      f0     0.0220
   1453 H           -0.0874     6.2918     1.1634 H       0      f0     0.0192
   1454 C            0.6756     9.2429     1.2833 C      59     f59    -0.0208
   1455 C            1.9543     9.1463     0.6128 C      59     f59    -0.0004
   1456 C            3.3251     8.9303     0.7039 C      59     f59    -0.0027
   1457 H            3.2620    10.1962    -0.9173 H       0      f0     0.0205
   1458 C            3.7056     8.7183     2.1361 C      59     f59     0.0013
   1459 C            3.8043     7.9920    -1.9089 C       0      f0    -0.0036
   1460 C            4.0261     8.2123    -0.2699 C       0      f0    -0.0100
   1461 C            5.2396     7.9278     0.2630 C       0      f0    -0.0018
   1462 C            5.5229    10.3423    -1.8851 C       0      f0    -0.0190
   1463 H            6.0010     7.5270    -2.0257 H       0      f0     0.0214
   1464 H            6.5889     6.4858     0.9910 H       0      f0     0.0200
   1465 C            6.4065     7.4298     0.8145 C       0      f0    -0.0298
   1466 C            7.1341     8.5202     1.6270 C       0      f0     0.0046
   1467 C            8.0483     9.5809     0.9244 C       0      f0    -0.0039
   1468 H            8.7285     7.0092     1.2321 H       0      f0     0.0250
   1469 C            8.7788     9.4187    -0.2062 C       0      f0     0.0328
   1470 C            8.8805     6.8317     0.1387 C       0      f0     0.0025
   1471 C            8.8448     7.9948    -0.7695 C       0      f0     0.0375
   1472 C           11.0072    10.0960    -0.8160 C     112    f112     0.2102
   1473 O           11.6360     8.7656    -0.2430 O     112    f112    -0.5116
   1474 H           11.7522     6.8353    -1.6356 H       0      f0     0.0671
   1475 C           12.3892     6.6309     1.9161 C       0      f0     0.0263
   1476 C           12.8619     9.3186     0.4036 C     112    f112     0.2284
   1477 H           13.9137     7.8628    -2.4138 H       0      f0     0.0283
   1478 C           13.8770     8.6988     1.3389 C       0      f0    -0.0550
   1479 H          -14.8787     8.9736     1.0817 H       0      f0     0.0245
   1480 H          -14.6203    14.3125     0.1623 H       0      f0     0.0342
   1481 C          -14.4921    12.1253    -0.4524 C      60     f60     0.0112
   1482 C          -14.3205    13.7941     2.3041 C      60     f60    -0.0053
   1483 C          -13.1360    12.0754    -0.3229 C      60     f60    -0.0033
   1484 C          -13.0992    13.6102     1.6054 C      60     f60    -0.0066
   1485 C          -12.6301    13.1394     0.3090 C      60     f60     0.0020
   1486 C          -12.3149    11.0933    -0.8690 C       6      f6     0.0351
   1487 C          -11.2965    13.0374    -0.0242 C       6      f6     0.0072
   1488 C          -11.1019    11.7303    -0.4576 C       6      f6    -0.0342
   1489 C          -10.5650    14.2935     0.6654 C       6      f6     0.0010
   1490 H          -10.0735    11.2619    -0.5731 H       0      f0     0.0227
   1491 H           -7.2991    10.5297     1.1647 H       0      f0     0.0279
   1492 C           -6.8770    14.2325     0.1063 C       0      f0     0.0292
   1493 C           -6.7337    10.3124    -1.8457 C       0      f0    -0.0244
   1494 C           -6.4792    10.6288     1.9174 C      61     f61    -0.0143
   1495 C           -6.5495    12.5504    -2.1372 C       0      f0    -0.0111
   1496 C           -6.3014    11.4804    -1.1994 C       0      f0     0.0011
   1497 C           -5.7468    13.5394     0.1716 C       0      f0     0.0044
   1498 C           -5.3914    11.4327     1.4233 C      61     f61     0.0068
   1499 C           -5.6383    12.0229     0.0218 C       0      f0    -0.0213
   1500 H           -4.6804    12.0134    -0.4895 H       0      f0     0.0211
   1501 C           -3.5080    14.3288    -0.4406 C       0      f0    -0.0059
   1502 H           -3.5717    11.3532     1.6690 H       0      f0     0.0202
   1503 C           -2.6362    13.2517     1.5998 C       0      f0     0.0016
   1504 C           -2.4540    13.9021     0.3453 C       0      f0    -0.0030
   1505 H           -2.2250    10.3385    -0.4002 H       0      f0     0.0171
   1506 C           -1.6902    10.5241    -1.3484 C     107    f107    -0.0151
   1507 C           -1.6468    12.2575     2.1347 C       0      f0    -0.0331
   1508 H           -0.8977    11.8087     1.4005 H       0      f0     0.0208
   1509 C           -0.4655    11.0428    -1.9609 C     107    f107    -0.0170
   1510 H            0.4282    11.4809    -1.7156 H       0      f0     0.0190
   1511 H            0.9887    11.8199     0.2228 H       0      f0     0.0186
   1512 C            1.4177    14.2824     0.0279 C       0      f0    -0.0128
   1513 C            1.9706    11.8675     0.7553 C      62     f62    -0.0196
   1514 C            2.2937    13.2930     0.3721 C      62     f62     0.0024
   1515 H            2.7673   -14.2195    -2.3377 H       0      f0     0.0171
   1516 C            2.8836    11.2262     1.6563 C      62     f62     0.0034
   1517 C            3.5675    14.0386     0.6508 C      62     f62    -0.0058
   1518 C            4.1720    11.9148     2.0529 C      62     f62    -0.0014
   1519 C            4.0348    10.6762    -1.7263 C       0      f0    -0.0107
   1520 C            5.1211    13.6389     0.8852 C      62     f62     0.0032
   1521 C            5.2485    12.0984     1.0617 C      62     f62     0.0039
   1522 C            6.0180    10.7084    -0.4541 C       0      f0     0.0026
   1523 C            6.3575    14.2973     0.4918 C       0      f0    -0.0086
   1524 C            6.1385    11.0728     0.7984 C       0      f0     0.0023
   1525 C            6.5655    13.6992    -2.0914 C       0      f0    -0.0012
   1526 C            7.6059   -14.4461    -1.4552 C       0      f0    -0.0025
   1527 C            7.7750    11.0191     1.2137 C       0      f0     0.0050
   1528 C            8.4452    11.8982     1.7685 C       0      f0     0.0148
   1529 H            8.7660    14.1602     2.1357 H       0      f0     0.0181
   1530 H            9.5002    11.5664    -0.0238 H       0      f0     0.0238
   1531 C            9.6319    10.5639    -0.4859 C       0      f0    -0.0396
   1532 H           11.2097    10.6955     2.0791 H       0      f0     0.0262
   1533 C           12.1098    10.9510    -1.2031 C     112    f112    -0.0300
   1534 C           12.1160    11.9280    -2.2476 C       0      f0    -0.0052
   1535 C           13.1890    12.9202    -1.9727 C       0      f0    -0.0392
   1536 C           13.3236    10.4984    -0.3502 C     112    f112    -0.0377
   1537 H           13.5357    13.6345     2.3854 H       0      f0     0.0169
   1538 C           13.4206    13.7996    -0.8149 C       0      f0     0.0283
   1539 C           14.2705    13.5213     1.6220 C      60     f60    -0.0230
   1540 C           14.5977    11.1143    -0.3000 C       0      f0    -0.0032
   1541 C           14.6407    13.5593     0.1725 C      60     f60    -0.0192
   1542 C          -14.2452   -10.9622     4.6762 C       0      f0     0.0021
   1543 C          -14.1582   -12.1763     5.5212 C       0      f0    -0.0056
   1544 C          -12.5980   -12.1368     5.8148 C       0      f0    -0.0040
   1545 C          -11.4591   -12.1172     6.0175 C       0      f0     0.0038
   1546 H          -10.3075   -12.9965     2.1281 H       0      f0     0.0730
   1547 C          -10.0060   -12.5997     6.2677 C      16     f16     0.0095
   1548 C           -8.9641   -13.3833     5.4723 C      16     f16     0.0080
   1549 C           -7.8650   -13.5755     6.5610 C      16     f16    -0.0045
   1550 C           -8.0273   -10.4587     5.7338 C       0      f0     0.0329
   1551 O           -7.2892   -13.4180     2.7651 O       0      f0    -0.4627
   1552 C           -6.9847   -13.6181     3.9692 C       0      f0     0.3150
   1553 C           -7.0659   -11.1404     5.0825 C       0      f0     0.0346
   1554 C           -6.7175   -13.6833     5.5055 C      16     f16    -0.0749
   1555 C           -5.7824   -11.7783     4.7203 C       0      f0    -0.0237
   1556 C           -5.4464   -12.9568     5.6646 C      16     f16     0.0024
   1557 H           -5.1456   -11.3583     3.9918 H       0      f0     0.0306
   1558 H           -4.8548   -14.1031     3.3166 H       0      f0     0.0339
   1559 C           -4.2406   -13.5707     2.4855 C       0      f0    -0.0141
   1560 C           -4.0235   -12.0462     2.4832 C       0      f0    -0.0153
   1561 H           -3.5908    14.2690     7.3686 H       0      f0     0.0188
   1562 H           -3.4486   -11.5177     3.2760 H       0      f0     0.0086
   1563 H           -2.4426   -12.5147     4.9940 H       0      f0     0.0143
   1564 C           -2.3907   -14.1643     3.5531 C       0      f0    -0.0042
   1565 H           -2.0782   -11.2344     2.3972 H       0      f0     0.0136
   1566 C           -1.8304   -13.3823     4.5901 C       0      f0    -0.0189
   1567 C            1.8813   -11.1876     3.1317 C     108    f108    -0.0172
   1568 H            2.4180   -11.3847     5.3668 H       0      f0     0.0233
   1569 C            2.2234   -11.8478     4.3927 C     108    f108    -0.0154
   1570 C            2.8565   -13.0387     3.9148 C     108    f108    -0.0151
   1571 C            3.3130   -12.9027     2.4642 C     108    f108    -0.0040
   1572 H            3.4080   -13.4986     4.7240 H       0      f0     0.0313
   1573 C            4.1196   -10.6400     5.8750 C       0      f0    -0.0369
   1574 H            4.7181   -10.7969     4.9441 H       0      f0     0.0113
   1575 H            5.2130   -11.9589     2.4049 H       0      f0     0.0231
   1576 H            7.1933   -11.9853     2.6263 H       0      f0     0.0119
   1577 C            7.1725   -14.0579     3.4749 C      22     f22    -0.0602
   1578 C            7.3232   -12.7030     3.5446 C      22     f22    -0.0208
   1579 C            8.3495   -12.0906     4.2188 C      22     f22    -0.0225
   1580 C            8.2722   -14.0252     5.5405 C      22     f22    -0.0025
   1581 H            8.6653   -11.2136     6.7231 H       0      f0     0.0342
   1582 C            8.8462   -12.7973     5.3890 C      22     f22    -0.0135
   1583 H            8.6994   -10.9625     4.2729 H       0      f0     0.0152
   1584 H            9.6242   -12.4591     6.0206 H       0      f0     0.0243
   1585 H           10.4322   -14.2478     2.2762 H       0      f0     0.0177
   1586 C           10.6799   -10.6679     3.1298 C      82     f82     0.0028
   1587 C           11.8065   -11.6855     3.7692 C      82     f82    -0.0067
   1588 C           11.9737   -11.3254     5.2623 C      82     f82    -0.0039
   1589 C           12.7209   -11.6910     2.7098 C       0      f0    -0.0057
   1590 C          -14.9348   -10.7485     3.2046 C       0      f0     0.0007
   1591 C          -14.8249    -9.4474     2.7229 C       0      f0    -0.0214
   1592 C          -13.8020    -9.6225     5.3675 C       0      f0    -0.0039
   1593 H          -13.8178    -9.2372     2.7638 H       0      f0     0.0229
   1594 C          -13.5769    -6.2292     5.4668 C       0      f0    -0.0057
   1595 C          -13.2262   -10.0291     6.7136 C       0      f0    -0.0208
   1596 C          -13.1770    -8.5831     4.4226 C      13     f13     0.0082
   1597 C          -12.6317    -7.3622     5.1455 C      13     f13    -0.0513
   1598 H          -12.2358    -9.9406     3.0033 H       0      f0     0.0541
   1599 C          -11.9827    -9.0627     3.6632 C      13     f13    -0.0897
   1600 C          -11.2532    -7.4880     5.7015 C      13     f13     0.2238
   1601 C          -10.6217    -9.3532     4.0526 C      13     f13     0.2922
   1602 C          -10.3408    -8.3787     5.2138 C      13     f13    -0.0950
   1603 O           -9.7641   -10.0781     3.3105 O       0      f0    -0.4212
   1604 C           -9.3292    -8.3213     6.3131 C      13     f13    -0.0032
   1605 H           -9.6187    -6.1262     4.6626 H       0      f0     0.0347
   1606 C           -8.4589    -9.2878     6.3372 C      13     f13    -0.0086
   1607 C           -7.7804    -6.4389     3.3081 C      21     f21     0.0208
   1608 H           -7.8759    -6.5689     5.3343 H       0      f0     0.0474
   1609 C           -6.6534    -7.3908     3.2643 C      21     f21     0.0024
   1610 H           -5.1109    -6.9076     4.9933 H       0      f0     0.0630
   1611 H           -5.2187    -9.0330     2.1483 H       0      f0     0.0123
   1612 C           -5.2644    -7.0562     3.8496 C       0      f0    -0.0276
   1613 H           -4.8295    -8.1102     3.5979 H       0      f0     0.0171
   1614 C           -3.9932    -6.2685     3.3759 C       0      f0    -0.0156
   1615 H           -3.5105    -8.7418     4.4167 H       0      f0    -0.0152
   1616 C           -2.9900    -8.5968     5.2664 C       0      f0     0.1703
   1617 O           -2.6928    -6.9972     5.4795 O       0      f0    -0.4844
   1618 C           -2.4607    -9.2880     6.3283 C       0      f0    -0.0195
   1619 H            0.5564    -7.0637     3.1273 H       0      f0     0.0262
   1620 C            0.6709    -7.4328     2.1321 C       0      f0    -0.0230
   1621 H            1.4997   -10.1899     2.9864 H       0      f0     0.0211
   1622 C            3.6849    -6.8149     6.2481 C      83     f83     0.0120
   1623 C            3.6613    -8.2050     6.3069 C       0      f0    -0.0107
   1624 C            3.8276    -9.4070     6.3805 C       0      f0     0.0038
   1625 C            6.7284    -8.1710     5.7141 C     129    f129     0.1337
   1626 H            7.0182    -9.0254     2.3682 H       0      f0     0.0097
   1627 C            7.0585    -8.1805     3.1401 C       0      f0    -0.0129
   1628 C            6.9529    -7.7578     4.4492 C       0      f0    -0.0176
   1629 H            9.3067    -8.4477     2.0727 H       0      f0     0.0149
   1630 C           10.0678    -8.2375     2.7616 C       0      f0    -0.0222
   1631 C           10.3107    -6.7296     3.1767 C       0      f0     0.0085
   1632 C           10.7700    -9.2692     3.6171 C      82     f82     0.0009
   1633 C           10.9772    -8.9818     5.0319 C      82     f82    -0.0230
   1634 H           10.7937    -8.0405     5.4874 H       0      f0     0.0264
   1635 C           11.5271   -10.1381     5.4065 C      82     f82    -0.0014
   1636 C           11.9042    -6.3242     3.2205 C       0      f0    -0.0089
   1637 H           12.6818    -8.0580     4.3470 H       0      f0     0.0267
   1638 C           12.9038    -7.1082     4.0567 C       0      f0    -0.0395
   1639 C           14.0008    -6.4967     5.0643 C       0      f0    -0.0003
   1640 H           13.3641    -7.1738     2.9487 H       0      f0     0.0221
   1641 H          -14.7706    -4.6189     4.3702 H       0      f0     0.0133
   1642 C          -14.6989    -5.7948     4.6590 C       0      f0    -0.0276
   1643 C          -14.1564    -2.8559     4.7450 C     113    f113    -0.0896
   1644 C          -12.9073    -5.2156     6.1864 C       0      f0     0.0411
   1645 H          -11.6327    -3.3353     5.1498 H       0      f0     0.0333
   1646 C          -10.7902    -4.5995     2.6050 C       0      f0     0.0056
   1647 C          -10.3814    -3.3781     5.5160 C      63     f63     0.0048
   1648 C          -10.0976    -4.4745     3.6200 C       0      f0     0.0490
   1649 C           -9.5102    -4.1712     4.7091 C      63     f63     0.0081
   1650 C           -8.4753    -6.0124     4.7010 C       0      f0    -0.0204
   1651 C           -8.1371    -4.4139     5.0428 C      63     f63    -0.0120
   1652 O           -8.0628    -3.6348     2.3667 O      11     f11    -0.5045
   1653 C           -7.9965    -4.1940     6.2831 C      63     f63     0.2269
   1654 C           -6.7800    -4.0340     4.6903 C      11     f11    -0.0591
   1655 C           -6.7817    -3.9042     3.3633 C      11     f11     0.1422
   1656 C           -5.8750    -3.9963     5.7713 C      11     f11     0.2091
   1657 C           -5.5821    -3.5712     2.7344 C      11     f11     0.2105
   1658 C           -4.8109    -3.3705     5.0821 C      11     f11     0.1533
   1659 C           -4.5108    -2.4230     6.0518 C       0      f0    -0.0508
   1660 O           -4.3294    -3.2458     3.5651 O      11     f11    -0.4711
   1661 C           -2.7402    -6.0695     4.2570 C       0      f0     0.2252
   1662 C           -1.9754    -4.9316     4.2374 C       0      f0    -0.0031
   1663 H           -1.5758    -4.4359     6.1589 H       0      f0     0.0432
   1664 C           -1.4348    -3.2404     2.8564 C       0      f0     0.0401
   1665 C           -0.8508    -3.9331     3.9904 C       0      f0     0.0033
   1666 C           -0.2852    -2.4305     2.6370 C       0      f0    -0.0177
   1667 C            0.2851    -3.6993     4.9279 C       0      f0    -0.0040
   1668 C            1.3573    -4.1626     5.7948 C       0      f0    -0.0072
   1669 C            2.4692    -4.9600     6.1619 C      83     f83    -0.0052
   1670 H            2.8801    -6.4298     4.5184 H       0      f0     0.0224
   1671 C            3.4395    -5.8427     5.2081 C      83     f83    -0.0347
   1672 H            4.2034    -4.5700     2.6786 H       0      f0     0.0143
   1673 H            4.1496    -4.4139     6.0777 H       0      f0     0.0362
   1674 C            4.7360    -4.7976     5.0074 C       0      f0     0.0537
   1675 C            4.8976    -4.3343     3.6348 C       0      f0    -0.0172
   1676 H            5.5984    -1.9272     6.0204 H       0      f0     0.0673
   1677 C            6.0826    -4.9809     3.2047 C       0      f0     0.0207
   1678 O            6.8586    -3.7625     6.3532 O     114    f114    -0.4780
   1679 C            7.3384    -5.4903     2.9286 C       0      f0     0.0097
   1680 C            7.9878    -2.5755     3.2189 C       0      f0    -0.0040
   1681 C            8.5648    -3.5522     3.9276 C       0      f0     0.0287
   1682 C            8.3144    -3.1300     6.2833 C     114    f114     0.2176
   1683 C            8.5942    -4.8130     3.3870 C       0      f0     0.0023
   1684 C            9.1466    -3.3176     5.3113 C       0      f0    -0.0661
   1685 C            9.7878    -5.6533     3.6721 C       0      f0    -0.0196
   1686 H           10.0424    -4.9177     4.5014 H       0      f0     0.0202
   1687 H            9.9554    -5.5451     5.9603 H       0      f0     0.0337
   1688 H           10.2274    -3.7264     3.3445 H       0      f0     0.0148
   1689 C           10.7013    -3.3966     4.9861 C       0      f0    -0.0064
   1690 C           11.1035    -3.0871     3.6921 C       0      f0    -0.0138
   1691 C           11.4940    -2.4556     5.6626 C       0      f0    -0.0478
   1692 C           12.3629    -3.6101     3.1042 C       0      f0     0.0228
   1693 H           12.8441    -4.6812     5.0440 H       0      f0     0.0124
   1694 C           13.1238    -4.8506     6.1602 C      23     f23     0.0106
   1695 C           13.7053    -3.3750     3.4776 C       0      f0    -0.0336
   1696 C           13.7957    -6.0665     6.4886 C      23     f23    -0.0348
   1697 C           14.9633    -2.7971     3.7698 C     113    f113     0.2078
   1698 O          -14.7442     1.4649     4.6487 O     130    f130    -0.3991
   1699 O          -14.2449    -1.5882     2.9297 O     113    f113    -0.4132
   1700 C          -13.2418    -2.1169     5.0893 C     113    f113     0.2421
   1701 C          -13.0270    -1.1903     4.0244 C     113    f113     0.1365
   1702 O          -12.7521    -1.9101     6.5379 O       0      f0    -0.4968
   1703 C          -12.2942     0.7110     2.3488 C       0      f0    -0.0104
   1704 C          -12.1669    -0.2368     3.5152 C       0      f0     0.0310
   1705 C          -12.0826     2.1270     3.1344 C       0      f0     0.0223
   1706 C          -10.7234    -0.0439     4.1720 C       0      f0    -0.0251
   1707 H          -10.3671     1.0224     3.9909 H       0      f0     0.0181
   1708 C          -10.2535    -0.7488     4.9965 C       0      f0     0.0249
   1709 C           -9.8785    -1.6239     5.7311 C       0      f0    -0.0192
   1710 H           -9.9481     1.6100     2.3541 H       0      f0     0.0198
   1711 H           -9.9010    -1.7139     6.7833 H       0      f0     0.0429
   1712 H           -8.3099     0.2829     3.2965 H       0      f0     0.0281
   1713 C           -7.7305     2.0067     3.6345 C       0      f0    -0.0040
   1714 C           -7.5612     0.6754     3.9595 C       0      f0    -0.0230
   1715 H           -6.3855    -0.6088     5.4134 H       0      f0     0.0202
   1716 C           -6.2793     0.1758     4.5872 C       0      f0    -0.0083
   1717 C           -4.9644     0.3511     3.9074 C       0      f0    -0.0165
   1718 H           -5.0703     0.8900     3.1066 H       0      f0     0.0196
   1719 C           -3.8698    -0.3688     4.2949 C       0      f0     0.0060
   1720 C           -3.7158    -1.1911     5.5232 C       0      f0     0.0318
   1721 H           -2.9575    -0.2606     3.7031 H       0      f0     0.0271
   1722 C           -1.2639     1.3813     2.3357 C       0      f0    -0.0008
   1723 H           -1.2338    -0.8444     2.7315 H       0      f0     0.0272
   1724 C           -0.3762     1.6846     3.4604 C       0      f0    -0.0018
   1725 C           -0.5065    -0.8183     6.5702 C       0      f0    -0.0180
   1726 C           -0.1013     0.5972     4.5095 C       0      f0     0.0023
   1727 C            0.3249    -0.2095     5.4541 C       0      f0    -0.0163
   1728 H            1.3422    -0.5739     5.7820 H       0      f0     0.0138
   1729 C            2.1749    -0.9296     3.8112 C       0      f0    -0.0089
   1730 C            2.1645    -1.0213     2.5817 C       0      f0    -0.0052
   1731 H            2.9086    -0.7643     6.3441 H       0      f0     0.0173
   1732 C            4.3218     0.7189     6.4991 C      28     f28     0.0040
   1733 H            6.2588     1.7155     4.2857 H       0      f0     0.0269
   1734 C            5.7424     0.6186     6.4595 C      28     f28    -0.0011
   1735 H            6.6559     0.1965     3.0809 H       0      f0     0.0359
   1736 C            6.4724     1.1021     5.1840 C       0      f0    -0.0139
   1737 C            6.6573    -0.2349     4.0770 C       0      f0    -0.0205
   1738 C            7.1881    -1.3984     4.1134 C       0      f0     0.0184
   1739 C            7.9844     1.3680     5.3896 C       0      f0     0.0037
   1740 C            9.0908     0.3448     5.6214 C     115    f115     0.0091
   1741 H            9.6428    -1.4486     4.1302 H       0      f0     0.0294
   1742 C            9.7349    -0.7303     5.1383 C     115    f115    -0.0215
   1743 C           10.7868    -1.2200     5.9456 C     115    f115    -0.0000
   1744 C           11.8315     1.2563     3.5800 C       0      f0    -0.0411
   1745 H           11.9037    -1.0537     4.4132 H       0      f0     0.0496
   1746 C           12.1461     0.9867     2.3319 C      12     f12     0.2582
   1747 C           12.2574     0.3507     6.1274 C      70     f70    -0.0431
   1748 C           12.4003     0.0775     4.6597 C      70     f70    -0.0001
   1749 C           14.0432     0.3049     4.7480 C     130    f130     0.1889
   1750 C           14.3996     0.9182     5.9079 C     130    f130     0.1152
   1751 H           14.9331     4.4511     3.6877 H       0      f0     0.0313
   1752 C          -14.6379     4.7301     2.6820 C       0      f0    -0.0375
   1753 C          -13.1524     4.6593     2.4860 C      57     f57     0.0045
   1754 H          -12.2797     2.9779     6.1727 H       0      f0     0.0396
   1755 C          -12.2498     4.3576     3.5558 C      57     f57     0.0023
   1756 C          -11.6351     3.0518     3.8035 C       1      f1     0.0030
   1757 C          -11.5740     5.2328     4.6359 C      57     f57    -0.0065
   1758 C          -11.2822     2.6687     6.3403 C       0      f0    -0.0209
   1759 C          -10.5630     3.0562     5.1645 C       1      f1    -0.0133
   1760 C          -10.3793     4.6138     5.0677 C       1      f1    -0.0057
   1761 H           -9.6132     2.7551     4.8791 H       0      f0     0.0221
   1762 C           -9.3989     5.4188     5.8205 C       1      f1     0.0087
   1763 C           -8.9527     2.2142     2.5186 C       0      f0    -0.0259
   1764 H           -8.6403     4.4219     4.3631 H       0      f0     0.0197
   1765 C           -8.0754     5.7165     6.0361 C       1      f1     0.0082
   1766 C           -7.4484     4.0749     4.3441 C       0      f0    -0.0120
   1767 C           -6.9086     4.9027     5.3696 C       0      f0    -0.0006
   1768 C           -6.6913     3.0047     3.7107 C       0      f0    -0.0228
   1769 H           -5.7586     2.4216     3.7570 H       0      f0     0.0193
   1770 C           -5.4806     4.8108     5.5456 C       0      f0    -0.0077
   1771 H           -5.2239     5.4277     6.3056 H       0      f0     0.0312
   1772 C           -4.4650     4.4282     4.5284 C     131    f131     0.0079
   1773 C           -3.3075     4.7767     5.5452 C     131    f131    -0.0701
   1774 C           -3.0276     4.6089     4.2004 C     131    f131     0.0162
   1775 C           -2.7727     5.4162     6.6986 C       0      f0     0.3504
   1776 C           -2.4824     4.6555     2.7819 C       0      f0    -0.0286
   1777 C           -1.4179     5.4105     2.4201 C       0      f0     0.0056
   1778 C           -0.4002     6.0948     2.2898 C       0      f0    -0.0226
   1779 C            0.0302     4.1723     4.5010 C     126    f126    -0.0011
   1780 C           -0.0403     5.5596     4.6151 C     126    f126     0.0009
   1781 C            0.2114     4.0976     6.0203 C     126    f126     0.0013
   1782 C            0.2322     3.0500     3.5036 C       0      f0    -0.0038
   1783 C            0.5925     5.7422     5.9823 C     126    f126     0.0328
   1784 C            1.5684     3.2930     3.0503 C      81     f81    -0.0002
   1785 H            2.4085     4.2604     4.6753 H       0      f0     0.0167
   1786 C            2.6599     3.8795     3.7000 C      81     f81    -0.0226
   1787 H            3.4288     4.8176     6.1512 H       0      f0     0.0133
   1788 C            3.8665     4.2203     2.9325 C      81     f81    -0.0152
   1789 H            4.0844     2.6589     5.1351 H       0      f0     0.0206
   1790 C            3.8183     2.1620     6.0439 C       0      f0    -0.0282
   1791 H            4.6596     4.7886     3.5058 H       0      f0     0.0137
   1792 H            5.7453     5.5370     4.1871 H       0      f0     0.0119
   1793 C            6.3280     4.3203     2.1142 C       0      f0    -0.0024
   1794 H            6.7440     4.1257     5.9748 H       0      f0     0.0199
   1795 C            6.7812     6.2405     4.5131 C      64     f64    -0.0084
   1796 C            7.3129     4.1482     2.9449 C       0      f0     0.0141
   1797 C            7.8084     3.7773     5.3439 C      84     f84    -0.0155
   1798 C            7.8648     4.9312     4.2503 C       0      f0    -0.0201
   1799 C            8.5277     2.5619     4.9727 C      84     f84     0.0154
   1800 H            8.9394     5.2119     4.5922 H       0      f0     0.0162
   1801 H            9.6069     4.5993     2.2900 H       0      f0     0.0215
   1802 C           10.1170     2.7094     5.2067 C      84     f84    -0.0099
   1803 H           10.5834     5.7265     3.0778 H       0      f0     0.0138
   1804 C           10.4813     3.1021     6.6260 C      84     f84    -0.0038
   1805 H           11.1404     3.6779     2.6567 H       0      f0     0.0192
   1806 C           11.0151     2.1421     4.3187 C       0      f0     0.0201
   1807 H           11.8358     5.0269     5.0513 H       0      f0     0.0152
   1808 C           12.3484     4.5820     5.7506 C       0      f0    -0.0299
   1809 C           13.5907     4.8442     5.6184 C       0      f0    -0.0168
   1810 H           14.5730     5.2579     5.2500 H       0      f0     0.0092
   1811 H           14.8404     5.6952     2.4339 H       0      f0     0.0181
   1812 C          -12.4604     7.0591     2.9214 C      57     f57     0.0309
   1813 C          -11.8489     7.6805     3.9631 C      57     f57    -0.0108
   1814 H          -12.0454     8.8797     3.9654 H       0      f0     0.0259
   1815 C          -11.2857     6.5725     4.7207 C      57     f57    -0.0014
   1816 H          -10.6815     8.9048     5.8091 H       0      f0     0.0144
   1817 C          -10.4460     6.5703     6.0121 C       1      f1     0.0031
   1818 C          -10.1041     7.9906     6.3137 C       1      f1    -0.0130
   1819 C           -9.6156    10.0853     3.7607 C       0      f0    -0.0207
   1820 H           -9.8969     9.3801     4.4787 H       0      f0     0.0225
   1821 C           -8.3586     8.0582     5.8567 C       1      f1    -0.0200
   1822 H           -8.4699     8.1270     4.7476 H       0      f0     0.0227
   1823 C           -7.6195     7.0221     6.5997 C       1      f1    -0.0062
   1824 C           -7.5338     9.0192     6.1976 C       1      f1    -0.0051
   1825 C           -6.5335     9.2136     5.2087 C       0      f0    -0.0065
   1826 C           -6.2650    10.2594     4.4614 C      61     f61    -0.0025
   1827 C           -5.4674     8.1586     5.3506 C       0      f0    -0.0243
   1828 H           -5.4473     7.4747     6.1480 H       0      f0     0.0254
   1829 C           -4.5810     7.9660     4.2837 C       0      f0    -0.0018
   1830 C           -3.9568     7.8075     3.2324 C       0      f0    -0.0241
   1831 C           -2.5228     7.9224     3.6367 C       0      f0    -0.0158
   1832 C           -1.8599     8.9316     3.2319 C       0      f0     0.0026
   1833 H           -2.8122     7.6136     4.6465 H       0      f0     0.0295
   1834 C           -1.0889    10.0063     2.8795 C       0      f0    -0.0045
   1835 C           -0.7412     9.6965     6.6261 C       0      f0    -0.0552
   1836 C            0.1867     6.3188     3.5821 C       0      f0     0.0075
   1837 C            0.3076     9.8953     2.5383 C      59     f59    -0.0017
   1838 C            0.5236    10.0387     5.8980 C       0      f0     0.0009
   1839 C            1.4849     9.5538     4.7983 C       0      f0    -0.0049
   1840 C            1.4533     6.8092     3.5606 C       0      f0    -0.0057
   1841 C            1.5316     9.6054     3.2850 C      59     f59     0.0016
   1842 C            2.5305     9.0089     5.2867 C       0      f0    -0.0002
   1843 C            2.5796     7.0527     3.5511 C       0      f0    -0.0042
   1844 C            3.1661     8.2154     6.1452 C       0      f0    -0.0067
   1845 C            2.8230     9.9319     2.5443 C      59     f59    -0.0016
   1846 C            3.9010     7.5894     3.2320 C       0      f0    -0.0143
   1847 C            4.5125     7.7394     5.8215 C      64     f64    -0.0152
   1848 H            4.2272     6.5228     2.8354 H       0      f0     0.0167
   1849 H            4.2108     6.6253     6.1827 H       0      f0     0.0131
   1850 C            5.0122     8.1949     4.3337 C      64     f64    -0.0136
   1851 H            5.4896     9.2534     4.0806 H       0      f0     0.0232
   1852 C            6.2460     7.4737     3.9441 C      64     f64    -0.0026
   1853 C            7.1332     8.1916     6.8070 C      64     f64    -0.0099
   1854 C            7.3493     8.3471     3.0818 C       0      f0    -0.0060
   1855 C            7.3426     7.0548     5.7671 C      64     f64    -0.0241
   1856 C            8.4737     8.3900     3.5005 C       0      f0     0.0124
   1857 H            9.9387     7.9684     5.0857 H       0      f0     0.0148
   1858 C            9.7065     8.1212     4.0434 C       0      f0    -0.0209
   1859 C           10.8703     7.8711     3.1326 C       0      f0    -0.0062
   1860 C           11.2662     6.5938     2.8692 C       0      f0    -0.0245
   1861 H           11.3964     8.6762     2.6329 H       0      f0     0.0369
   1862 C           12.2455     8.7549     6.0892 C       0      f0    -0.0508
   1863 H           12.0229     8.2451     5.2445 H       0      f0     0.0204
   1864 C           12.4092    10.0550     5.8278 C       0      f0     0.0023
   1865 C           13.4609     7.5866     2.4250 C       0      f0    -0.0130
   1866 H           14.3281     7.2369     2.9713 H       0      f0     0.0127
   1867 C          -14.4560    13.3388     3.8222 C       6      f6    -0.0081
   1868 H          -13.3685    10.4831     4.5838 H       0      f0     0.0170
   1869 C          -13.1602    12.6955     4.1672 C       6      f6    -0.0046
   1870 C          -12.9394    11.4953     4.9158 C       0      f0    -0.0185
   1871 C          -12.4113    11.5004     6.2255 C       0      f0    -0.0224
   1872 H          -12.5708    12.6310     6.5063 H       0      f0     0.0176
   1873 C          -12.0023    14.2264     2.5810 C       6      f6     0.0020
   1874 C          -12.1503    13.7562     3.9430 C       6      f6    -0.0001
   1875 H          -10.9098    13.8431     5.8142 H       0      f0     0.0148
   1876 C          -10.9007    13.6503     4.7709 C       0      f0    -0.0224
   1877 H          -10.4657    10.7793     3.5593 H       0      f0     0.0276
   1878 C           -9.7219   -14.3220     4.5594 C       0      f0     0.0064
   1879 H           -8.6698    14.2131     4.2845 H       0      f0     0.0336
   1880 C           -8.3680    10.3945     3.2201 C       0      f0     0.0093
   1881 C           -6.8893    10.4613     3.2397 C      61     f61     0.0029
   1882 C           -5.2463    11.2156     4.7170 C      61     f61    -0.0222
   1883 H           -4.9781    11.2597     5.7664 H       0      f0     0.0170
   1884 C           -4.3849    11.3834     2.4894 C      61     f61    -0.0163
   1885 C           -4.2056    11.0019     3.8143 C      61     f61     0.0055
   1886 C           -3.0739    14.3555     2.6435 C       0      f0    -0.0078
   1887 C           -2.7501    10.9619     4.5055 C       0      f0    -0.0087
   1888 C           -2.7703    10.4634     5.7417 C       0      f0     0.0178
   1889 C           -1.5074    11.3992     3.6657 C       0      f0    -0.0176
   1890 H           -1.3603    13.0214     2.9202 H       0      f0     0.0239
   1891 C           -1.0001   -14.4242     5.1318 C       0      f0    -0.0015
   1892 H           -0.6909    11.6637     4.3069 H       0      f0     0.0190
   1893 C           -0.1622    13.5929     5.8545 C       0      f0    -0.0233
   1894 H            0.6191    12.8461     3.3123 H       0      f0     0.0185
   1895 H            0.6705    10.9409     6.3922 H       0      f0     0.0179
   1896 C            1.0927    12.9009     5.6160 C      29     f29    -0.0017
   1897 C            1.3752    12.5890     4.1729 C      29     f29    -0.0198
   1898 C            2.1491    12.6918     6.4400 C      65     f65     0.0011
   1899 C            2.7032    12.1380     4.2156 C      29     f29     0.0002
   1900 C            3.1991    12.1736     5.5835 C      65     f65     0.0035
   1901 C            4.0651    11.9939     3.4697 C      29     f29     0.0151
   1902 C            4.4362    11.6056     5.8906 C      65     f65     0.0284
   1903 C            4.9191    11.4387     4.4831 C      29     f29    -0.0278
   1904 H            6.0334    11.5584     4.3823 H       0      f0     0.0912
   1905 H            6.7386   -13.9752     2.4680 H       0      f0     0.0381
   1906 O            7.6908    12.9321     4.6384 O      22     f22    -0.5123
   1907 C            7.5723    14.4299     4.5745 C      22     f22     0.2568
   1908 C            8.3089    12.7904     6.0451 C      22     f22     0.2509
   1909 C            8.9028    13.9549     6.5757 C      22     f22    -0.0798
   1910 C            8.9857    13.0216     2.3006 C       0      f0     0.0262
   1911 C           10.4859    12.6695     2.7938 C       0      f0     0.0180
   1912 C           10.9891    13.9281     2.7320 C       0      f0    -0.0448
   1913 C           11.2080    11.2673     2.9844 C       0      f0    -0.0173
   1914 H           11.0162    11.4952     7.2714 H       0      f0     0.0400
   1915 H           11.9902    14.1561     3.0154 H       0      f0     0.0216
   1916 H           12.5038    13.9761     6.0363 H       0      f0     0.0116
   1917 C           12.5215    11.2097     3.6301 C       0      f0    -0.0090
   1918 C           12.8248    11.0574     5.1279 C       0      f0    -0.0043
   1919 C           13.9678    12.1186     5.4390 C       0      f0    -0.0093
   1920 C           14.5905    12.9914     4.6741 C       0      f0    -0.0087
   1921 C          -14.4991   -12.4805     8.8075 C       0      f0    -0.0036
   1922 C          -14.0022   -10.5887     7.8388 C       0      f0    -0.0015
   1923 H          -13.8175   -13.4608    10.6704 H       0      f0     0.0225
   1924 C          -13.4884   -11.8362     8.5616 C       0      f0    -0.0230
   1925 C          -12.8874   -13.9008    10.3384 C       7      f7    -0.0250
   1926 H          -12.4229   -12.1005     8.4549 H       0      f0     0.0167
   1927 C           -9.5791   -11.9605     7.2167 C      16     f16    -0.0057
   1928 C           -9.2522   -10.7206     9.1444 C       0      f0     0.0240
   1929 C           -8.7767   -11.8608     8.1974 C      16     f16    -0.0145
   1930 H           -8.9770   -14.2101     9.3493 H       0      f0     0.0174
   1931 C           -7.5375   -12.5881     7.7276 C      16     f16    -0.0038
   1932 H           -6.8614   -14.3281     9.7215 H       0      f0     0.0174
   1933 C           -6.1748   -12.5906     8.1248 C      16     f16    -0.0123
   1934 C           -6.1907   -11.8162    10.7433 C       0      f0    -0.0375
   1935 C           -5.7731   -11.8734     9.4517 C       0      f0    -0.0009
   1936 C           -5.3178   -12.8341     7.0431 C      16     f16     0.0030
   1937 C           -4.4884   -10.9281     9.6465 C       0      f0    -0.0013
   1938 C           -4.0286   -13.8225     8.9841 C      85     f85    -0.0050
   1939 C           -3.9805   -13.5467     7.4890 C       0      f0    -0.0332
   1940 C           -3.7973   -11.6543    10.6428 C       0      f0    -0.0168
   1941 C           -3.3322   -13.0711    10.0813 C      85     f85    -0.0043
   1942 H           -3.2974   -12.6781     7.7615 H       0      f0     0.0174
   1943 H           -2.2941   -10.9437     7.2186 H       0      f0     0.0134
   1944 C           -2.2880   -13.6233    11.1125 C      85     f85    -0.0030
   1945 H           -0.3568   -12.6985     7.4797 H       0      f0     0.0182
   1946 H            0.1523    14.3899     7.7928 H       0      f0     0.0138
   1947 C            0.0331   -10.3806    10.5639 C       0      f0    -0.0153
   1948 C            0.6168   -12.7366     7.5893 C      24     f24    -0.0243
   1949 H            0.6354   -12.6856    10.8315 H       0      f0     0.0156
   1950 C            1.0559   -14.0865     7.6127 C      24     f24    -0.0137
   1951 H            1.5558   -10.4719     7.4692 H       0      f0     0.0155
   1952 C            1.5657   -11.6457     7.3363 C      24     f24    -0.0101
   1953 C            2.8845   -12.2256     7.3978 C      24     f24    -0.0317
   1954 C            3.5702   -13.6625     7.7566 C      24     f24     0.2206
   1955 C            4.0758   -11.3276     7.1105 C      24     f24    -0.0159
   1956 O            5.0751   -13.6529     7.6215 O      24     f24    -0.4282
   1957 C            5.1451   -10.3866    10.9050 C      66     f66    -0.0183
   1958 H            4.9338   -11.4311    10.3462 H       0      f0     0.0434
   1959 C            5.3211   -12.2551     6.8850 C      24     f24     0.1999
   1960 C            6.4579   -11.6200     6.8025 C       0      f0    -0.0186
   1961 C            7.6516   -10.7935     6.8759 C       0      f0    -0.0556
   1962 C            7.8849   -13.4190     9.9964 C       0      f0     0.3120
   1963 C            7.7012   -12.6041    10.6668 C       0      f0    -0.1136
   1964 O            7.9374    14.4626     8.9306 O       0      f0    -0.4638
   1965 H           12.3582   -12.6001     9.5141 H       0      f0     0.0237
   1966 C           12.3344   -11.5424     6.7354 C       0      f0    -0.0091
   1967 H           12.4656   -13.7375     8.1626 H       0      f0     0.0417
   1968 C           12.6803   -11.5326     8.0411 C       0      f0     0.0080
   1969 C           12.8540   -12.9166     8.5764 C       0      f0    -0.0431
   1970 C           13.8648   -13.6997    10.6234 C       0      f0     0.0129
   1971 C           14.3477   -13.0951     9.2653 C       0      f0    -0.0059
   1972 C           14.9279    -8.9586     9.0481 C      86     f86    -0.0048
   1973 H          -14.2021    -6.6403     8.1021 H       0      f0     0.0151
   1974 C          -14.0030    -7.4727    11.1326 C       0      f0    -0.0092
   1975 C          -12.9651    -6.6408    10.7745 C       0      f0     0.0228
   1976 H          -12.1601    -9.8813     6.6989 H       0      f0     0.0207
   1977 H          -11.3031    -8.3161     9.6387 H       0      f0    -0.0062
   1978 C          -10.7777    -9.0202    10.3410 C       0      f0     0.2761
   1979 O          -10.6662    -6.7795     6.9570 O      13     f13    -0.5240
   1980 C           -9.9667    -9.8993     9.6786 C       0      f0    -0.0649
   1981 C           -9.4381    -7.4768     7.3495 C      13     f13     0.2440
   1982 C           -8.1416    -7.4559     7.9383 C      13     f13    -0.0484
   1983 C           -7.9015    -6.7818     9.0947 C       0      f0     0.0352
   1984 C           -7.3644    -8.5214     7.0436 C      13     f13     0.0035
   1985 C           -6.1480    -8.8945     7.3741 C       0      f0     0.0075
   1986 H           -5.9283    -7.7948    10.0397 H       0      f0     0.0818
   1987 C           -4.8918    -8.3411    10.3544 C       0      f0    -0.0226
   1988 C           -4.6971    -9.4426     9.2519 C       0      f0    -0.0012
   1989 C           -4.9652    -9.2303     7.7922 C       0      f0    -0.0364
   1990 H           -4.3949    -8.4213     7.5345 H       0      f0     0.0378
   1991 H           -3.6396    -7.1963     8.3389 H       0      f0     0.0424
   1992 H           -2.8600    -8.4015     9.8187 H       0      f0     0.0290
   1993 C           -2.7101    -7.3380     9.8436 C       0      f0    -0.0080
   1994 C           -2.1635    -9.9574     7.4926 C       0      f0    -0.0117
   1995 H           -1.3442    -6.9553     7.9141 H       0      f0     0.0397
   1996 C           -1.5050    -6.5683    10.4509 C       0      f0    -0.0068
   1997 C           -1.1308    -9.3452     8.5044 C       0      f0     0.0065
   1998 C           -0.7560    -7.8326     8.2715 C       0      f0    -0.0028
   1999 H           -0.8138    -6.0009     9.9251 H       0      f0     0.0164
   2000 C           -0.5930    -9.9124     9.4444 C       0      f0    -0.0040
   2001 C            0.4667    -7.4691     8.1109 C       0      f0    -0.0407
   2002 H            0.2715    -6.4499     7.7634 H       0      f0     0.0231
   2003 H            1.4331    -8.0351     8.3114 H       0      f0     0.0182
   2004 H            2.9910    -8.5223     8.9227 H       0      f0     0.0132
   2005 C            4.0774    -8.4025     9.2171 C       0      f0    -0.0088
   2006 C            3.8494    -6.3682     7.7058 C      83     f83     0.0111
   2007 C            4.7274    -9.2966     9.9341 C       0      f0     0.0046
   2008 C            4.8182    -7.1448     8.8006 C       0      f0    -0.0452
   2009 H            5.0073    -6.3674     9.7830 H       0      f0     0.0255
   2010 H            5.6978    -7.3161     8.4744 H       0      f0     0.0930
   2011 C            7.1553    -9.4272     6.8358 C     129    f129     0.2057
   2012 O            7.2708    -8.0603     7.3028 O     129    f129    -0.4679
   2013 C            7.4987    -7.8851    10.6747 C       0      f0     0.0024
   2014 C            7.7086    -6.8553     9.7827 C       0      f0     0.0298
   2015 C            9.7462    -6.9952     8.9806 C       0      f0     0.0168
   2016 C           10.3394    -8.1604     9.9472 C       0      f0     0.0354
   2017 C           10.3784    -6.8392     7.6791 C       0      f0     0.0262
   2018 H           10.8325   -10.1633    10.1843 H       0      f0     0.0216
   2019 H           10.9915    -9.9632     8.5311 H       0      f0     0.0292
   2020 C           11.0385    -9.4411     9.4963 C       0      f0    -0.0746
   2021 H           10.8062    -7.8885     7.1500 H       0      f0     0.0253
   2022 C           12.6246    -9.1673     9.6329 C      86     f86     0.2331
   2023 O           13.2228    -7.8145    10.0093 O      86     f86    -0.4488
   2024 C           13.0696   -10.0960     8.7644 C      86     f86    -0.0656
   2025 C           14.5986    -9.9865     8.4540 C      86     f86     0.0177
   2026 C           14.9175    -7.6931     9.8414 C      86     f86     0.1368
   2027 H          -14.8998    -6.7544     9.3930 H       0      f0     0.0902
   2028 H          -14.4332    -5.4219     6.9316 H       0      f0     0.0163
   2029 H          -13.8869    -3.8123     7.8178 H       0      f0     0.1363
   2030 C          -13.0312    -4.2470     7.1924 C       0      f0    -0.0406
   2031 C          -12.2173    -3.0041     7.3581 C     116    f116     0.2430
   2032 C          -11.8603    -6.0734    10.5886 C       0      f0     0.0355
   2033 C          -11.4131    -2.4530     8.8261 C     116    f116     0.1747
   2034 C          -11.0054    -3.6250     6.8168 C     116    f116    -0.0904
   2035 C          -10.4596    -5.5937    10.6063 C       0      f0     0.0511
   2036 C          -10.0950    -3.9611     7.7795 C     116    f116     0.2677
   2037 O          -10.1471    -3.1004     9.1012 O     116    f116    -0.5150
   2038 C           -9.0988    -5.0581    10.3059 C       0      f0    -0.0008
   2039 C           -8.9780    -4.0946     7.0752 C      63     f63    -0.0658
   2040 C           -8.2219    -2.2618    11.1271 C       0      f0     0.0294
   2041 C           -8.0663    -5.8744    10.0042 C       0      f0     0.2037
   2042 O           -6.7226    -5.8491    10.8566 O       0      f0    -0.4797
   2043 O           -6.5913    -4.5325     6.8824 O      11     f11    -0.4759
   2044 H           -5.1832    -2.6024     6.9703 H       0      f0     0.0490
   2045 C           -3.0220    -6.3370     8.9112 C       0      f0    -0.0053
   2046 C           -2.6154    -3.0419    10.0586 C       0      f0    -0.0016
   2047 C           -2.6209    -5.5278     7.8109 C       0      f0     0.0567
   2048 C           -2.2098    -2.8502     8.7151 C       0      f0    -0.0023
   2049 C           -2.1509    -4.3794     7.1972 C       0      f0    -0.0038
   2050 C           -1.6851    -3.0693     7.5015 C       0      f0    -0.0078
   2051 C           -1.4683    -3.1856    11.0985 C       0      f0    -0.0081
   2052 C           -0.2445    -2.3624    11.0727 C       0      f0    -0.0055
   2053 C            0.7017    -2.3454    10.1192 C       0      f0    -0.0164
   2054 C            1.5132    -2.7860     9.3604 C       0      f0    -0.0022
   2055 C            2.6206    -3.1804     8.2102 C       0      f0    -0.0028
   2056 C            2.6046    -4.4292     7.5453 C      83     f83    -0.0031
   2057 C            3.6059    -2.0741     8.4959 C      28     f28    -0.0018
   2058 C            3.8261    -5.0919     8.1305 C      83     f83    -0.0134
   2059 H            4.2933    -4.8482     9.1639 H       0      f0     0.0366
   2060 C            4.7856    -2.5647     7.8909 C      28     f28     0.0365
   2061 C            5.8104    -2.9208    10.0383 C       0      f0    -0.0251
   2062 C            5.7590    -3.2570     8.6992 C       0      f0    -0.0247
   2063 H            6.4483    -4.9249     7.9967 H       0      f0     0.0320
   2064 C            6.9299    -4.0075     7.8871 C     114    f114     0.1843
   2065 C            8.3452    -4.5697    11.0544 C       0      f0    -0.0042
   2066 C            8.4140    -3.7298     8.4536 C     114    f114    -0.0102
   2067 C            8.5930    -6.1485     9.2375 C       0      f0     0.0181
   2068 C            8.8153    -4.6310     9.6047 C       0      f0    -0.0301
   2069 C            9.0245    -2.8210     7.4778 C     114    f114    -0.0766
   2070 H           10.0406    -2.5887     7.3599 H       0      f0     0.0457
   2071 H            9.9079    -4.2444     9.6393 H       0      f0     0.0374
   2072 H           10.2901    -4.6331     7.5479 H       0      f0     0.0287
   2073 C           10.3682    -5.5867     7.0351 C       0      f0    -0.0329
   2074 C           12.0603    -2.8004     7.0946 C      23     f23     0.1890
   2075 O           12.0711    -2.2614     8.6556 O      23     f23    -0.4864
   2076 C           12.9077    -3.9170     7.2258 C      23     f23    -0.0807
   2077 C           13.0717    -3.1562     9.2539 C      23     f23     0.2279
   2078 C           13.3581    -3.3820    10.6338 C       0      f0     0.0195
   2079 C           13.6228    -4.1590     8.3934 C      23     f23     0.2317
   2080 O           14.7719    -5.0515     8.7383 O      23     f23    -0.5129
   2081 C           14.8421    -6.0638     7.6324 C      23     f23     0.1867
   2082 O          -13.7333    -1.9042     9.2603 O       0      f0    -0.4205
   2083 C          -12.8721     1.0983     8.4468 C       0      f0     0.0490
   2084 C          -12.5779    -1.4445     9.2887 C       0      f0     0.2919
   2085 C          -12.2882    -0.0200     8.8686 C       0      f0    -0.0276
   2086 H          -11.2060     0.3367     8.8388 H       0      f0     0.0186
   2087 H           -9.5224    -0.2925     9.4453 H       0      f0     0.0334
   2088 H           -9.2423     0.9066     7.0640 H       0      f0     0.0294
   2089 C           -8.8999     0.3935     8.9352 C       0      f0     0.0121
   2090 C           -8.4335     0.6108     7.6638 C       0      f0    -0.0101
   2091 C           -7.6602    -0.1284     9.5316 C       0      f0     0.0183
   2092 C           -7.4408    -0.9834    10.7602 C       0      f0     0.0138
   2093 C           -7.1489     1.3990     7.4839 C      25     f25     0.0144
   2094 H           -6.9119    -0.3243     8.7771 H       0      f0     0.0247
   2095 H           -5.9984    -0.3109     7.5623 H       0      f0     0.0301
   2096 C           -5.9464     0.6346     7.3875 C      25     f25    -0.0883
   2097 H           -5.4028    -2.0865    10.2363 H       0      f0     0.0313
   2098 C           -4.6446    -1.3064    10.8242 C       0      f0    -0.0285
   2099 C           -4.6201     1.2234     7.3735 C      25     f25     0.2201
   2100 C           -3.5375    -2.0725    10.4084 C       0      f0    -0.0039
   2101 C           -3.6053     0.1780     7.3487 C       0      f0    -0.0325
   2102 C           -2.6943    -0.6067     6.3653 C       0      f0    -0.0011
   2103 C           -1.7945     1.3013    10.8457 C       0      f0     0.0111
   2104 C           -1.6225    -1.6248     6.6894 C       0      f0     0.0060
   2105 C           -1.3461     0.6829     9.7029 C       0      f0    -0.0166
   2106 H           -0.9671    -0.1749     9.8299 H       0      f0     0.0168
   2107 C           -0.7445     1.6636     8.7514 C       0      f0     0.0132
   2108 H            0.4402    -0.5912     7.2277 H       0      f0     0.0130
   2109 C            1.1655     1.3670    11.3489 C       0      f0    -0.0328
   2110 C            2.4421     1.4216     9.1060 C      30     f30    -0.0102
   2111 C            3.3150     0.2834     9.4671 C       0      f0    -0.0158
   2112 C            3.4969    -0.5881     8.4083 C      28     f28     0.0033
   2113 H            2.7240    -0.0886    10.2612 H       0      f0     0.0282
   2114 C            3.7440    -0.5669     6.8562 C      28     f28    -0.0240
   2115 C            4.9710     1.5273    10.9410 C       0      f0     0.0008
   2116 C            5.1006    -1.5028     6.9420 C      28     f28    -0.0165
   2117 C            5.5698    -1.5390    10.6286 C       0      f0     0.0275
   2118 C            5.9503     1.1119    10.0813 C       0      f0    -0.0002
   2119 C            6.2554    -0.5882     7.1665 C      28     f28     0.0041
   2120 C            6.2368    -0.3468     9.8508 C       0      f0    -0.0114
   2121 C            6.1928    -0.5244     8.5156 C       0      f0     0.0028
   2122 C            7.9058     1.7873     8.6808 C       0      f0    -0.0037
   2123 C            8.7334     1.5848     7.7484 C       0      f0     0.0058
   2124 C            9.5515     0.6499     6.9928 C     115    f115    -0.0188
   2125 H            9.2845    -1.5368    10.3603 H       0      f0     0.0279
   2126 C           10.8946    -0.0700     7.0343 C     115    f115     0.0289
   2127 H           10.6406    -0.3350     8.1017 H       0      f0     0.0624
   2128 H           12.1313     1.1318    10.8124 H       0      f0     0.0878
   2129 H           11.8860    -1.1073    10.8137 H       0      f0     0.0844
   2130 O           13.1757     1.8348     8.2350 O       0      f0    -0.4732
   2131 C           13.2530     0.9856     6.8649 C      70     f70     0.2048
   2132 C          -14.3968     3.0432     8.3113 C     117    f117    -0.0550
   2133 C          -14.5209     4.3532     9.2270 C     117    f117    -0.0081
   2134 C          -13.8624     3.7247    10.6303 C       8      f8     0.0001
   2135 C          -13.5615     2.0194     8.4006 C       0      f0     0.0335
   2136 C          -13.4507     5.0970     8.5078 C       0      f0    -0.0574
   2137 H          -13.6313     6.1499     8.6020 H       0      f0     0.0251
   2138 H          -13.4531     4.8647     7.3623 H       0      f0     0.0199
   2139 H          -12.7749     4.7613     9.1958 H       0      f0     0.0244
   2140 H          -11.5877     4.1908    10.8334 H       0      f0     0.0153
   2141 H          -11.7920     5.8013    10.5287 H       0      f0     0.0094
   2142 C          -11.1967     5.9446     7.3055 C       1      f1    -0.0206
   2143 C          -10.6450     4.6188     8.0963 C       0      f0    -0.0107
   2144 C          -10.7094     3.4766     7.4499 C       0      f0     0.0397
   2145 H          -10.1558     4.5290     9.2503 H       0      f0     0.0427
   2146 H           -8.1949     5.8284    10.3396 H       0      f0     0.0304
   2147 O           -8.0420     3.5035     8.2670 O      25     f25    -0.4862
   2148 C           -7.9567     6.0392     9.2366 C       0      f0    -0.0608
   2149 C           -7.1603     4.6901     8.7173 C      25     f25     0.2172
   2150 C           -6.8723     2.7475     7.7601 C      25     f25     0.1840
   2151 C           -5.8782     4.5988     8.5656 C      25     f25    -0.0396
   2152 C           -5.7414     3.3437     8.0052 C      25     f25     0.1879
   2153 H           -5.0150     3.2115    10.6796 H       0      f0     0.1173
   2154 O           -4.3281     2.7030     7.7578 O      25     f25    -0.4511
   2155 O           -2.1384     5.8694     7.6548 O       0      f0    -0.4029
   2156 C           -0.4898     2.5577     8.1003 C       0      f0     0.0259
   2157 C           -0.2626     3.4007     7.0252 C       0      f0     0.0385
   2158 C            1.7647     2.0192    10.2631 C      30     f30     0.0092
   2159 C            2.1469     3.4375    10.4895 C      30     f30     0.0028
   2160 C            2.6598     3.9978     9.2286 C      30     f30     0.0046
   2161 C            3.0020     2.6981     8.5956 C      30     f30    -0.0046
   2162 C            3.1510     4.3768     7.0618 C      30     f30    -0.0219
   2163 C            3.2638     2.9778     7.2253 C      30     f30     0.0001
   2164 C            3.4578     4.9187     8.4065 C      30     f30     0.0019
   2165 C            4.7280     5.5969     9.3186 C       0      f0    -0.0378
   2166 H            5.1689     6.0511     8.4164 H       0      f0     0.0202
   2167 C            5.6062     4.7022    10.0790 C       0      f0     0.0060
   2168 C            6.4526     4.1326     8.9645 C       0      f0    -0.0069
   2169 C            7.1137     3.9432     8.0882 C       0      f0    -0.0004
   2170 C            7.1947     1.9014     9.7464 C       0      f0     0.0005
   2171 C            8.1667     4.1342     6.9854 C      84     f84    -0.0207
   2172 H            8.3922     5.2188     6.9262 H       0      f0     0.0130
   2173 C            9.2892     3.1261     7.4476 C      84     f84    -0.0079
   2174 H            9.9706     3.8828     8.2164 H       0      f0     0.0245
   2175 H           10.2784     6.4030     7.4613 H       0      f0     0.0111
   2176 C           10.2042     5.7919    10.7700 C       0      f0    -0.0055
   2177 C           10.6416     5.6276     9.3871 C       0      f0     0.0100
   2178 C           10.9150     5.5991     8.1076 C       0      f0    -0.0332
   2179 C           11.7797     3.6649     6.8882 C       0      f0     0.0340
   2180 C           11.8731     4.4933     8.0325 C       0      f0     0.0201
   2181 C           13.2010     6.0679    10.8463 C       0      f0     0.0089
   2182 C           13.3607     4.2124     8.2705 C     117    f117    -0.0300
   2183 C           13.9003     6.2950     9.5440 C       0      f0    -0.0255
   2184 C           14.1005     2.9532     8.3598 C     117    f117     0.2585
   2185 H           14.1889     3.3996    10.5983 H       0      f0     0.0522
   2186 C           14.1929     4.9531     9.0074 C     117    f117    -0.0087
   2187 C          -14.8835    10.3987     7.2716 C      31     f31    -0.0000
   2188 H           14.9352     7.2657     7.1723 H       0      f0     0.0159
   2189 C          -13.1678     7.4438    10.8315 C       1      f1    -0.0532
   2190 O          -12.4809     9.7566    10.4671 O       1      f1    -0.4741
   2191 C          -12.2790     9.8243     7.5192 C       0      f0     0.0333
   2192 H          -12.2107     5.7328     6.9164 H       0      f0     0.0146
   2193 C          -11.9352     6.8919    10.5764 C       1      f1     0.0091
   2194 C          -11.2034     8.9611     9.6244 C       1      f1     0.1572
   2195 C          -11.1711     9.2198     8.1179 C       1      f1    -0.0225
   2196 C          -11.1149     7.4568     9.5718 C       1      f1    -0.0406
   2197 C          -10.8283     7.1216     8.1559 C       1      f1     0.0018
   2198 C          -10.3351     8.3076     7.5972 C       1      f1    -0.0085
   2199 H          -10.3689     9.2944    10.4756 H       0      f0     0.0331
   2200 H           -8.9532     8.6016    10.0141 H       0      f0     0.0143
   2201 H           -8.9112     6.0779     8.6600 H       0      f0     0.0392
   2202 C           -8.0185     8.8526    10.7126 C       0      f0    -0.0189
   2203 C           -7.0882     9.1090     7.3690 C       1      f1    -0.0104
   2204 C           -7.0071     7.2167     9.0690 C       1      f1     0.0073
   2205 C           -6.9738     7.6610     7.7046 C       1      f1    -0.0042
   2206 C           -6.9052     9.9230     8.5680 C       1      f1    -0.0069
   2207 C           -6.7896     8.2154    10.0191 C       1      f1     0.0019
   2208 C           -6.1682     9.5362     9.7371 C       1      f1    -0.0234
   2209 H           -3.7619     9.9235     7.3960 H       0      f0     0.0301
   2210 C           -2.8429     9.9675     6.8935 C       0      f0    -0.0774
   2211 H           -2.5875     8.6191     8.9132 H       0      f0     0.2155
   2212 C           -1.6089     9.1196     7.4291 C       0      f0     0.2689
   2213 O           -1.5753     8.2737     8.6038 O       0      f0    -0.4885
   2214 H            0.5950     8.8203    11.4412 H       0      f0     0.0269
   2215 C            1.2662     6.5791     6.5254 C       0      f0     0.0212
   2216 H            1.0697     8.1119     9.0776 H       0      f0     0.0715
   2217 H            1.8777     6.2630    10.7252 H       0      f0     0.0295
   2218 C            2.0996     7.5190     7.2881 C       0      f0     0.0114
   2219 C            1.9697     8.0972     8.6126 C       0      f0    -0.0248
   2220 C            3.2236     8.6768     9.1324 C     118    f118     0.0003
   2221 C            3.5217     8.5881    10.5190 C     118    f118    -0.0118
   2222 H            3.8702     6.0693     9.9269 H       0      f0     0.0221
   2223 C            4.6710     8.6106     8.4960 C     118    f118     0.0021
   2224 C            4.9086     8.9857    10.6903 C     118    f118     0.0137
   2225 C            5.2916     9.5391     7.4189 C       0      f0    -0.0042
   2226 H            5.4064     7.1942     9.9743 H       0      f0     0.0198
   2227 C            5.5974     8.1471     9.4869 C     118    f118    -0.0462
   2228 C            5.7255     8.4131     6.5887 C      64     f64    -0.0010
   2229 H            6.7007     8.0444     9.4315 H       0      f0     0.0190
   2230 H            7.5019     6.5477     6.5490 H       0      f0     0.0168
   2231 C            7.8230     9.2016     7.5814 C     132    f132    -0.0112
   2232 H            8.3594     9.5747    10.6170 H       0      f0     0.0226
   2233 C            8.6820     8.9591     9.8980 C       0      f0    -0.0159
   2234 C            8.8458     7.5265     9.8120 C       0      f0    -0.0200
   2235 H            8.7730     7.0945     8.7824 H       0      f0     0.0151
   2236 C            9.0793     9.4417     8.4875 C     132    f132    -0.0148
   2237 C            9.6663     7.1000    10.9362 C       0      f0     0.0077
   2238 H            9.9526     8.9311     7.9497 H       0      f0     0.0181
   2239 H           11.9366     8.6748     7.0599 H       0      f0     0.0287
   2240 O           13.7833     8.8767    10.4873 O      31     f31    -0.4674
   2241 C           14.2501     7.5694     9.2845 C      31     f31     0.1585
   2242 C           14.0585    10.0135     9.7152 C      31     f31     0.2371
   2243 C           14.6855     9.4207     8.3183 C      31     f31     0.0016
   2244 C           14.7202     7.9798     8.0643 C      31     f31    -0.0478
   2245 H          -14.6870    13.8858     8.7562 H       0      f0     0.0413
   2246 C          -13.8031    13.5197     8.4495 C       0      f0    -0.0640
   2247 H          -13.7257    12.5375     8.8027 H       0      f0     0.0500
   2248 H          -13.8555    13.5019     7.3151 H       0      f0     0.0237
   2249 C          -13.3690    10.3785     6.8776 C       0      f0    -0.0018
   2250 C          -12.6299    14.1568     9.2961 C       7      f7     0.0083
   2251 C          -11.2249    13.6860     9.4115 C       7      f7     0.0075
   2252 H          -10.9404    12.1860     7.6622 H       0      f0     0.0242
   2253 C          -10.6963    12.8293     8.3594 C       7      f7    -0.0255
   2254 C          -10.3323    14.0758    10.4839 C       7      f7    -0.0028
   2255 C           -9.3081    12.6724     8.8802 C       7      f7     0.0073
   2256 H           -8.7596    10.8313     8.0130 H       0      f0     0.0200
   2257 C           -8.8388    13.8894     9.9161 C       7      f7    -0.0161
   2258 C           -8.5091    11.5353     8.7033 C       7      f7    -0.0210
   2259 H           -8.0727    14.3204     6.9948 H       0      f0     0.0141
   2260 C           -7.1659    11.3846     9.0687 C       7      f7    -0.0045
   2261 C           -7.3125    13.6733    10.2029 C       7      f7    -0.0286
   2262 C           -6.4636    12.5464     9.6565 C       7      f7     0.0015
   2263 H           -6.1487     9.9252    10.6448 H       0      f0     0.0228
   2264 H           -5.8841    12.8865     7.8402 H       0      f0     0.0190
   2265 C           -5.2280    12.7682     8.7963 C       0      f0    -0.0374
   2266 H           -4.4134    12.0732     8.5634 H       0      f0     0.0216
   2267 C           -4.5191    13.8474     9.5361 C      85     f85     0.0044
   2268 C           -4.1047    13.7810    10.9545 C      85     f85    -0.0182
   2269 H           -1.7666   -14.1259     9.2474 H       0      f0     0.0185
   2270 C           -1.6740    13.6369     9.4809 C       0      f0    -0.0415
   2271 H           -1.9347    12.8098     9.0063 H       0      f0     0.0244
   2272 H           -0.6505    13.2026     6.8274 H       0      f0     0.0131
   2273 C           -0.6960    13.7672    10.3595 C       0      f0    -0.0045
   2274 C            2.3842    12.9102     7.8247 C      65     f65     0.0046
   2275 C            2.4689    14.3512     7.6207 C      24     f24    -0.0447
   2276 H            3.0992    13.7364    10.4707 H       0      f0    -0.0026
   2277 C            3.4968    12.8032     8.5712 C     119    f119    -0.0179
   2278 C            3.6836    13.0000     9.9932 C     119    f119     0.2245
   2279 C            4.1111    11.5385     8.2998 C     119    f119     0.0009
   2280 C            4.6889    10.8649     7.1773 C      65     f65    -0.0134
   2281 O            5.0210    12.4264    10.4070 O     119    f119    -0.4422
   2282 C            5.5340    11.8715     8.9641 C     119    f119     0.1352
   2283 H            6.0059    12.6696     8.4829 H       0      f0     0.0762
   2284 H            6.2727    10.9976     9.4089 H       0      f0     0.0223
   2285 H            7.6341    12.0543     9.3598 H       0      f0     0.0551
   2286 C            8.0400    10.5541     7.4718 C     132    f132     0.0180
   2287 C            8.1757    11.7195     6.7663 C       0      f0    -0.0494
   2288 C            8.4321    11.9147    10.0625 C      87     f87     0.0120
   2289 C            8.9396    13.7394     7.8634 C       0      f0     0.2279
   2290 C            9.7204    12.0086     9.3213 C      87     f87    -0.0251
   2291 C            9.8429    12.6799     7.8650 C       0      f0    -0.0417
   2292 C           10.7434    12.1888    10.0984 C      87     f87     0.1998
   2293 C           11.0476    12.6424     6.9939 C       0      f0     0.0127
   2294 O           12.2368    12.3710     9.4098 O       0      f0    -0.4475
   2295 C           12.4910    13.1677     6.8895 C       0      f0     0.0223
   2296 C           13.3881    11.1739     9.1693 C      31     f31     0.1357
   2297 C           13.8203    12.5966     6.9288 C       0      f0     0.0175
   2298 C           14.2225    11.4458     7.7976 C      31     f31    -0.0118
   2299 C          -13.6037   -13.9448    15.5388 C      33     f33    -0.0081
   2300 C          -13.2638   -14.2700    14.3337 C      33     f33    -0.0047
   2301 C          -12.9475   -14.2351    13.1595 C      33     f33    -0.0027
   2302 C          -12.4912   -11.5343    14.8283 C      33     f33    -0.0013
   2303 C          -12.1769   -11.6886    13.5029 C      33     f33     0.0212
   2304 C          -12.1976   -13.1147    12.6407 C      33     f33    -0.0053
   2305 C          -12.0048   -13.3799    11.2725 C       7      f7     0.0017
   2306 C          -10.5674   -14.0513    11.4969 C       7      f7     0.0030
   2307 C           -9.7568   -11.5555    14.6287 C       0      f0     0.0036
   2308 C           -9.5613   -13.0361    14.8669 C       0      f0    -0.0113
   2309 C           -9.3714   -14.1224    12.5273 C       0      f0    -0.0227
   2310 C           -9.2909   -13.4645    13.5998 C       0      f0     0.0158
   2311 H           -7.0878   -12.2111    10.9624 H       0      f0     0.0263
   2312 H           -5.6233   -11.0357    11.5604 H       0      f0     0.0219
   2313 C           -3.5669   -11.6647    14.8359 C       0      f0     0.0188
   2314 H           -3.7316   -11.6019    11.7859 H       0      f0     0.0161
   2315 H           -3.1484   -12.9350    13.2859 H       0      f0     0.0196
   2316 C           -2.7640   -12.0634    13.9144 C       0      f0    -0.0472
   2317 C           -1.8660   -10.8649    13.1986 C     133    f133     0.1449
   2318 C           -1.0747   -12.9612    11.7287 C       0      f0    -0.0250
   2319 C            0.3651   -13.4156    11.6403 C      32     f32    -0.0099
   2320 H            1.3415   -10.9472    12.4213 H       0      f0     0.0181
   2321 C            1.2017   -13.8985    13.0125 C      32     f32    -0.0614
   2322 C            1.5170   -13.0144    13.9594 C       0      f0     0.0622
   2323 C            2.2826   -12.0540    14.8786 C      14     f14     0.0095
   2324 C            3.7014   -11.6013    14.7158 C      14     f14     0.0082
   2325 C            4.0986   -10.2525    12.1306 C      66     f66    -0.0027
   2326 C            4.4197   -11.2762    13.3664 C      66     f66    -0.0047
   2327 C            5.6266   -11.6988    13.3414 C      66     f66     0.0167
   2328 H            6.0351   -10.8291    15.3912 H       0      f0     0.0183
   2329 C            6.9081   -12.0888    13.1658 C      66     f66    -0.0239
   2330 H            6.7338    14.2701    13.6252 H       0      f0     0.0444
   2331 H            7.5333   -12.8985    13.4367 H       0      f0     0.0237
   2332 C            7.4187   -11.4207    11.7447 C      66     f66     0.0142
   2333 H            8.3647   -11.1531    12.2007 H       0      f0     0.0114
   2334 C            9.9391   -11.7358    15.3913 C       0      f0     0.0068
   2335 C           10.5928   -11.3110    14.1933 C       0      f0    -0.0528
   2336 C           11.5624   -10.9738    13.3844 C     134    f134     0.1617
   2337 C           13.0554   -14.3022    13.0894 C       0      f0     0.0002
   2338 C           12.9764   -11.5916    13.1734 C     134    f134     0.1272
   2339 C           13.5999   -14.2067    14.4038 C       0      f0    -0.0281
   2340 C           13.2881   -13.4478    11.8825 C       0      f0    -0.0114
   2341 C           13.9381   -12.0042    12.1401 C       0      f0    -0.0459
   2342 H           14.4378   -11.3936    11.4900 H       0      f0     0.0395
   2343 H           14.5520   -13.4461    14.0662 H       0      f0     0.0201
   2344 H          -14.3896    -8.6886    14.9167 H       0      f0     0.0368
   2345 H          -14.5005    -8.3453    12.6650 H       0      f0     0.0421
   2346 C          -13.4785    -8.2685    12.3341 C       0      f0    -0.0156
   2347 C          -13.0312    -6.8459    14.3874 C       0      f0    -0.0177
   2348 H          -13.2442    -9.2415    12.0099 H       0      f0     0.0540
   2349 C          -12.7094    -7.1929    13.0598 C       0      f0     0.0289
   2350 C          -12.1480   -10.2866    15.3339 C       0      f0     0.0023
   2351 H          -12.0546    -6.2257    12.8860 H       0      f0     0.0263
   2352 C          -11.6204    -9.1667    15.4452 C       0      f0     0.0043
   2353 O          -10.7355    -8.7460    11.6817 O       0      f0    -0.4530
   2354 C           -9.3373   -10.1790    14.4588 C       0      f0     0.0134
   2355 C           -9.4688    -8.7194    15.0054 C       9      f9    -0.0119
   2356 C           -8.8201    -7.7266    13.9740 C       9      f9     0.0358
   2357 C           -8.4946    -6.5003    14.7610 C       9      f9    -0.0057
   2358 H           -8.2260   -10.5706    14.2733 H       0      f0     0.0203
   2359 H           -4.9552    -9.6300    14.0132 H       0      f0     0.0227
   2360 C           -4.7688    -7.9397    15.0347 C       0      f0    -0.0004
   2361 C           -4.5944    -8.6342    13.7378 C       0      f0     0.0071
   2362 C           -4.5942    -7.9205    11.4941 C       0      f0     0.0326
   2363 C           -4.2742    -7.5680    12.7258 C       0      f0     0.0255
   2364 C           -1.9082    -6.1733    11.7980 C       0      f0     0.0195
   2365 O           -1.5002    -9.4449    13.5259 O     133    f133    -0.4418
   2366 C           -0.8361   -10.4433    12.5932 C     133    f133     0.1326
   2367 C            0.6251   -10.2416    12.0133 C       0      f0    -0.0239
   2368 C            1.1574    -8.5494   -15.4884 C       0      f0    -0.0158
   2369 H            0.8686    -9.2923    14.5313 H       0      f0     0.0475
   2370 H            1.6474    -8.1066    11.4563 H       0      f0     0.0268
   2371 H            2.0362    -8.4877    13.1645 H       0      f0     0.0231
   2372 C            1.7651    -8.8502    12.0856 C       0      f0    -0.0242
   2373 C            3.0299    -9.5765    11.9561 C       0      f0    -0.0142
   2374 H            3.8371    -7.3740    14.1557 H       0      f0     0.0184
   2375 C            5.0578    -7.5361    14.3108 C      34     f34    -0.0250
   2376 C            5.6908    -7.7440   -15.4812 C      34     f34     0.0037
   2377 C            5.9623    -8.2080    13.3270 C      34     f34    -0.0053
   2378 C            6.5895   -10.2925    11.3224 C      66     f66     0.0021
   2379 C            7.1825    -8.7117    13.0963 C      34     f34    -0.0056
   2380 C            7.3156    -8.9971    11.4484 C       0      f0    -0.0069
   2381 C            7.9471    -8.9598   -15.4554 C      34     f34    -0.0060
   2382 C            8.1686    -8.7007    14.1641 C      34     f34    -0.0175
   2383 H            9.2827    -9.1199    13.8750 H       0      f0     0.0143
   2384 H            9.7981    -6.3184    10.9500 H       0      f0     0.0245
   2385 C           10.2527    -7.3179    11.1264 C       0      f0    -0.0162
   2386 H           11.6134    -8.8342    15.2729 H       0      f0     0.0592
   2387 C           11.1238    -8.0018    12.0144 C       0      f0     0.0139
   2388 C           11.4206    -6.4958    14.0156 C       0      f0     0.0005
   2389 H           11.3670    -9.0040    11.9687 H       0      f0     0.0390
   2390 C           11.8332    -6.4409    15.4491 C       0      f0    -0.0187
   2391 C           11.6014    -7.7086    13.3292 C       0      f0    -0.0026
   2392 H           11.4691    -8.6466    13.6504 H       0      f0     0.0741
   2393 O           12.7059   -10.0766    13.7882 O     134    f134    -0.4723
   2394 H           13.8336    -7.9659    14.8128 H       0      f0     0.0576
   2395 H           14.5699    -6.0251    13.5207 H       0      f0     0.0259
   2396 C          -14.0639    -3.9358    13.2074 C       0      f0     0.0105
   2397 H          -14.3651    -2.8769    15.0203 H       0      f0     0.0172
   2398 C          -12.9123    -3.3554    13.4817 C       0      f0    -0.0216
   2399 H          -12.0593    -4.0597    13.9140 H       0      f0     0.0193
   2400 C           -9.8165    -4.7738    15.1948 C       9      f9     0.0077
   2401 H           -9.2892    -2.1644    10.9644 H       0      f0     0.0906
   2402 C           -8.8583    -4.4701    14.0365 C       9      f9    -0.0132
   2403 H           -8.5645    -4.5334    11.1091 H       0      f0     0.0446
   2404 H           -9.0653    -3.6107    13.4374 H       0      f0     0.0393
   2405 C           -8.1274    -5.5874    13.6339 C       9      f9    -0.0218
   2406 C           -7.3017    -3.1347    11.3992 C       0      f0    -0.0534
   2407 H           -7.6139    -6.0177    12.7691 H       0      f0     0.0710
   2408 C           -6.5957    -4.4042    11.5604 C       0      f0     0.2040
   2409 C           -5.7109    -4.2828    12.7823 C       0      f0    -0.0564
   2410 H           -5.3724    -3.1652    13.1848 H       0      f0     0.0214
   2411 C           -5.0064    -2.3754    15.4666 C       0      f0    -0.0069
   2412 C           -4.7702    -5.0642    12.9013 C       0      f0     0.0369
   2413 C           -4.0548    -2.2985    14.9043 C       0      f0    -0.0119
   2414 C           -3.8107    -5.9488    12.9826 C       0      f0    -0.0053
   2415 H           -3.1664    -5.8529   -15.5024 H       0      f0     0.0284
   2416 C           -2.6758    -2.3643    14.3821 C       0      f0    -0.0106
   2417 C           -2.2712    -5.8691    13.0094 C       0      f0     0.0191
   2418 C           -2.1334    -3.6165    14.7766 C       0      f0    -0.0025
   2419 C           -1.6969    -3.7973    12.1963 C       0      f0    -0.0045
   2420 C           -1.5113    -4.4213    13.4663 C       0      f0    -0.0189
   2421 H           -0.5165    -4.3157    14.0350 H       0      f0     0.0197
   2422 H            1.1421    -5.0255    15.0177 H       0      f0     0.0155
   2423 H            1.4399    -4.9699    12.8758 H       0      f0     0.0266
   2424 C            1.7004    -3.8711    12.4766 C       0      f0     0.0017
   2425 H            2.0060    -2.9756    11.6711 H       0      f0     0.0460
   2426 C            1.8896    -4.2183    14.6877 C       0      f0    -0.0157
   2427 C            1.8478    -3.1696    13.5504 C       0      f0    -0.0002
   2428 H            2.6699    -1.8673    15.5160 H       0      f0     0.0383
   2429 C            2.9643    -4.5520    15.2379 C       0      f0     0.0093
   2430 H            4.3606    -5.6221    13.6694 H       0      f0    -0.0066
   2431 O            4.5777    -4.0713    11.9445 O     120    f120    -0.4954
   2432 C            4.9732    -5.2491    12.7937 C     120    f120     0.2175
   2433 C            5.8471    -3.9965    11.1077 C     120    f120     0.2133
   2434 C            6.2037    -5.7135    12.3008 C     120    f120    -0.0334
   2435 C            6.9446    -4.9553    11.3839 C     120    f120    -0.0379
   2436 C            8.3939    -4.8956    14.7562 C       0      f0    -0.0080
   2437 C            9.1568    -4.2505    12.1631 C     121    f121    -0.0053
   2438 C            9.1620    -4.8040    13.5253 C     121    f121    -0.0023
   2439 C            9.4984    -2.3812    13.8388 C      67     f67     0.0024
   2440 C           10.5907    -3.7368    11.8814 C     121    f121     0.0017
   2441 C           10.4230    -2.6359    14.7773 C      67     f67    -0.0354
   2442 C           10.4259    -5.5733    13.4562 C     121    f121    -0.0018
   2443 H           10.3143    -2.4654   -15.4510 H       0      f0     0.0204
   2444 C           11.4690    -2.6270    12.3716 C      67     f67     0.0075
   2445 C           11.1203    -5.0005    12.3916 C     121    f121    -0.0223
   2446 C           11.6298    -2.6569    13.8142 C      67     f67     0.0034
   2447 H           12.1520    -5.2984    12.0410 H       0      f0     0.0420
   2448 C           13.0097    -3.1131    14.2805 C       0      f0    -0.0109
   2449 C           13.4959    -4.0824    13.3715 C       0      f0    -0.0083
   2450 C           13.5143    -3.8067    11.8807 C       0      f0     0.0296
   2451 C           14.7182    -4.8920    13.2599 C       0      f0    -0.0141
   2452 C          -14.8012    -0.1850    12.8185 C       8      f8     0.2458
   2453 C          -14.5787     2.0005    11.9939 C       8      f8     0.2418
   2454 C          -13.3276    -0.5562    13.0115 C       8      f8    -0.0352
   2455 C          -13.2135     1.8243    12.1458 C       8      f8    -0.0528
   2456 C          -13.0192    -1.8657    13.2990 C       0      f0     0.0375
   2457 C          -12.5746     0.6480    12.7543 C       8      f8    -0.0318
   2458 C          -11.1607     1.5190    15.3333 C       0      f0     0.0196
   2459 C          -11.0009     0.4754    12.8984 C       8      f8     0.3392
   2460 C          -10.8615     1.8104    13.7137 C       8      f8    -0.0728
   2461 O          -10.1711    -0.4369    13.0807 O       0      f0    -0.5035
   2462 H           -9.9488     2.1145    13.8675 H       0      f0     0.0456
   2463 H           -8.5001     1.2469    14.7796 H       0      f0     0.0452
   2464 H           -7.2532     0.7167    12.2449 H       0      f0     0.0900
   2465 C           -6.8015    -0.2802    12.0919 C       0      f0    -0.0160
   2466 H           -6.1022    -0.8469    12.9466 H       0      f0     0.0205
   2467 H           -6.1103     1.4612    15.4087 H       0      f0     0.0144
   2468 C           -5.3931    -0.0179    11.3206 C       0      f0     0.0321
   2469 C           -4.4115     0.8735    11.9146 C       0      f0     0.0151
   2470 C           -3.8268     2.1932    12.2391 C       0      f0     0.0002
   2471 H           -3.5136     0.0037    14.7120 H       0      f0     0.0182
   2472 C           -2.6640     0.2869    14.1347 C       0      f0    -0.0296
   2473 C           -1.9979    -0.9403    13.9856 C       0      f0     0.0036
   2474 C           -1.7426     1.5448    14.5200 C       0      f0    -0.0003
   2475 C           -0.9750    -0.7420    13.0068 C       0      f0    -0.0447
   2476 C           -0.4706    -1.4184    11.8787 C       0      f0    -0.0066
   2477 H            0.0353    -1.4346    15.3654 H       0      f0     0.0389
   2478 C            0.0462     0.2197    13.5969 C     135    f135     0.1331
   2479 C            0.9656     0.5696    12.4343 C     135    f135     0.1420
   2480 O            1.5775     0.7557    13.9253 O     135    f135    -0.4407
   2481 H            2.1868    -2.0350    13.3316 H       0      f0     0.0477
   2482 H            3.9953     0.1977    14.4236 H       0      f0     0.0578
   2483 H            3.8607     1.2043    12.7877 H       0      f0     0.0556
   2484 C            4.7590     1.7444    12.4780 C       0      f0    -0.0185
   2485 C            4.8461     0.9293    14.4769 C       0      f0    -0.0164
   2486 C            5.4230    -0.6059    11.8115 C       0      f0     0.0136
   2487 C            5.8519     1.2365    13.4650 C       0      f0    -0.0083
   2488 C            6.3314     0.1421    12.6806 C       0      f0    -0.0052
   2489 C            7.6173     0.7658    11.9930 C       0      f0    -0.0051
   2490 H            7.8333    -1.5502    12.7526 H       0      f0     0.0245
   2491 C            8.6216    -0.1967    11.6397 C       0      f0    -0.0115
   2492 C            8.7438    -2.1021    12.8177 C      67     f67    -0.0283
   2493 C            9.5141    -1.2657    11.5312 C      67     f67    -0.0119
   2494 H            9.5843     0.2996    13.8227 H       0      f0     0.0207
   2495 C           10.6258     0.5379    13.7773 C     122    f122    -0.0366
   2496 H           11.1964    -0.1833    14.3987 H       0      f0     0.0310
   2497 C           11.3233     0.1180    12.4847 C     122    f122     0.0357
   2498 C           11.2516    -1.1718    11.7729 C      67     f67    -0.0191
   2499 C           11.5730     1.2487    11.7573 C     122    f122     0.0059
   2500 C           14.0223    -2.0959    14.6062 C       0      f0     0.0057
   2501 O           14.2765     1.0258    12.4998 O       8      f8    -0.4887
   2502 C           14.4961    -1.1049    13.7531 C       0      f0    -0.0143
   2503 C           14.9584     3.0808    11.1715 C       8      f8    -0.0598
   2504 H          -14.1873     5.5154    12.1262 H       0      f0     0.0175
   2505 H          -12.9822     4.3739    14.4139 H       0      f0     0.0128
   2506 C          -12.7880     3.9422    15.4072 C       0      f0    -0.0165
   2507 H          -12.5683     5.8219    14.0334 H       0      f0     0.0113
   2508 C          -12.6139     3.8542    11.0609 C       8      f8    -0.0357
   2509 C          -12.0693     2.7815    12.2101 C       8      f8    -0.0033
   2510 C          -11.3059     3.1670    13.3285 C       8      f8    -0.0067
   2511 C          -10.3552     5.5876    13.3329 C     123    f123     0.0171
   2512 C          -10.1502     4.1099    13.0759 C     123    f123     0.0088
   2513 C           -8.6837     4.1975    12.3912 C     123    f123    -0.1064
   2514 C           -8.1558     5.6855    12.5212 C     123    f123     0.0225
   2515 C           -7.6537     3.3800    11.7626 C       0      f0     0.3855
   2516 O           -6.8394     2.6518    11.2652 O       0      f0    -0.5518
   2517 C           -6.8518     5.9598    13.1343 C      39     f39    -0.0197
   2518 C           -5.8756     5.0724    12.7122 C       0      f0     0.0003
   2519 C           -4.8912     4.2424    12.3410 C       0      f0     0.0138
   2520 C           -4.7866     6.3644    14.2133 C       0      f0    -0.0053
   2521 C           -4.2414     3.3642    11.4715 C       0      f0     0.0077
   2522 H           -3.9038     4.5145    14.4378 H       0      f0     0.0193
   2523 C           -2.8699     4.2788    14.4901 C       0      f0    -0.0353
   2524 H           -2.6587     3.4094    13.8066 H       0      f0     0.0224
   2525 C           -2.2797     2.0634    11.7902 C       0      f0     0.0078
   2526 C           -2.2757     5.4674    13.5514 C       0      f0    -0.0361
   2527 H           -2.0238     5.4240    12.5215 H       0      f0     0.0363
   2528 H           -1.5669     6.1798    14.2407 H       0      f0     0.0200
   2529 C           -1.2463     2.8752    12.5297 C       0      f0    -0.0262
   2530 H           -0.8878     3.7714    12.0412 H       0      f0     0.0370
   2531 C           -0.8909     2.5487    13.8181 C       0      f0     0.0069
   2532 C            0.3701     3.1196    14.6656 C      92     f92     0.0126
   2533 C            0.8070     5.2971    13.9170 C      68     f68    -0.0099
   2534 C            0.9965     6.2727    15.2038 C      17     f17    -0.0048
   2535 C            1.0459     3.9776    13.8840 C      92     f92    -0.0021
   2536 C            1.5328     6.0937    12.9531 C      68     f68     0.0043
   2537 C            2.1391     5.6021    11.7033 C      68     f68    -0.0192
   2538 C            2.5697     4.2546    11.6121 C      68     f68     0.0042
   2539 C            2.4506     3.6893    14.0277 C      92     f92     0.0241
   2540 C            2.6827     3.3613    15.5204 C      92     f92    -0.0253
   2541 C            3.2931     3.8757    12.9626 C      68     f68    -0.0029
   2542 C            4.7005     3.1804    13.0014 C       0      f0     0.0056
   2543 C            5.6537     4.1249    13.2836 C       0      f0     0.0009
   2544 C            6.1410     5.0919    11.3276 C       0      f0    -0.0073
   2545 H            6.5603     2.1618    13.9279 H       0      f0     0.0174
   2546 C            6.7394     4.9500    13.4520 C       0      f0    -0.0247
   2547 C            6.7798     5.7544    12.2362 C       0      f0     0.0067
   2548 H            7.0328     5.4506    14.2271 H       0      f0     0.0245
   2549 C            7.7995     2.0596    11.2150 C       0      f0    -0.0004
   2550 C            8.3179     3.1550    11.6604 C       0      f0    -0.0054
   2551 C            8.9668     4.2649    12.3935 C      69     f69    -0.0029
   2552 C            9.3675     4.0844    13.7470 C      69     f69    -0.0075
   2553 C            9.8527     3.0865    14.5927 C      69     f69    -0.0087
   2554 C           10.0922     4.4169    11.4916 C      69     f69    -0.0006
   2555 C           10.7814     2.1594    13.7236 C     122    f122     0.0080
   2556 C           11.3851     2.5744    12.3955 C     122    f122     0.0241
   2557 C           11.4038     4.0680    11.6686 C      69     f69     0.0085
   2558 C           12.3164     4.9898    11.2564 C       0      f0    -0.0084
   2559 H           13.3010     5.5487    13.3399 H       0      f0     0.0184
   2560 H          -14.8803     3.7607    15.0192 H       0      f0     0.0257
   2561 C          -14.2867     7.6022    12.6220 C       1      f1     0.0194
   2562 C          -14.4870    10.3181    12.6740 C       0      f0     0.0354
   2563 C          -13.9027     8.9991    12.3158 C       1      f1    -0.0335
   2564 C          -13.8267     6.5853    12.0173 C       1      f1    -0.0232
   2565 C          -13.1887     8.7225    11.2222 C       1      f1     0.2798
   2566 C          -11.8629    10.4040    13.6070 C       0      f0     0.0189
   2567 C          -11.7427     9.0485    13.9549 C       0      f0     0.0275
   2568 H          -11.7673     7.5806    15.3896 H       0      f0     0.0241
   2569 C          -11.5386     6.3120    13.6013 C       0      f0    -0.0222
   2570 C          -11.5639     7.7877    14.2741 C       0      f0     0.0126
   2571 C           -9.0232     6.3453    13.3163 C     123    f123    -0.0621
   2572 O           -8.8972     8.5098    14.8531 O       0      f0    -0.4916
   2573 C           -8.6499     7.3035    14.4694 C      39     f39     0.3060
   2574 C           -8.1411     9.8050    11.7021 C       0      f0     0.0116
   2575 H           -6.7190     9.0196    15.1105 H       0      f0     0.0685
   2576 C           -6.2180     6.2808    14.6746 C      39     f39    -0.0138
   2577 C           -3.5228     6.6980    13.7556 C       0      f0    -0.0139
   2578 C           -3.4207    10.3681    12.5127 C       0      f0    -0.0063
   2579 H           -2.5442     7.2877    13.8294 H       0      f0     0.0163
   2580 H           -1.4237     8.2209    12.0088 H       0      f0     0.0294
   2581 C           -1.3469     9.3000    11.7354 C     124    f124     0.0057
   2582 C           -0.0309     9.5261    11.4769 C     124    f124    -0.0098
   2583 C            1.9542     7.2631    14.8537 C      17     f17     0.0026
   2584 C            2.2659     7.2874    13.5275 C      17     f17    -0.0286
   2585 C            2.4526     9.9378    15.1283 C       0      f0     0.0198
   2586 C            2.8383     9.6185    12.8451 C       0      f0    -0.0040
   2587 C            3.0682     9.1988    11.7263 C       0      f0    -0.0027
   2588 H            3.2044     7.5323    12.9276 H       0      f0     0.0186
   2589 H            4.0359     8.1348    14.9400 H       0      f0     0.0203
   2590 C            5.3002     9.0793    12.1032 C       0      f0    -0.0072
   2591 C            5.8662     9.6620    13.0407 C       0      f0     0.0060
   2592 H            7.1478     7.8675    12.9763 H       0      f0     0.0263
   2593 H            6.9597     7.5203    11.1970 H       0      f0     0.0209
   2594 C            7.3623     7.3161    12.1860 C       0      f0    -0.0428
   2595 C            7.6421    10.1900    14.7329 C      26     f26    -0.0053
   2596 C            8.8511     7.1159    12.1159 C       0      f0     0.0081
   2597 C            8.9554     7.5482    14.4810 C       0      f0    -0.0012
   2598 C            9.4448     6.8728    13.4009 C       0      f0    -0.0166
   2599 H           10.5437     6.5018    13.6631 H       0      f0     0.0223
   2600 C           11.3695     7.9890    15.2434 C       0      f0    -0.0031
   2601 C           12.4080     7.4316    14.5766 C       0      f0    -0.0037
   2602 C           13.3660     6.7151    13.7723 C       0      f0    -0.0086
   2603 H           12.6884     6.8219    11.4956 H       0      f0     0.0569
   2604 C           14.6141     7.3110    13.7885 C       0      f0    -0.0155
   2605 H           14.7153     8.1743    14.3520 H       0      f0     0.0222
   2606 H          -14.1645    13.3051    11.4647 H       0      f0     0.0352
   2607 C          -13.5908    13.4546    12.2630 C       0      f0    -0.0283
   2608 C          -13.1420    12.2606    12.6897 C       0      f0     0.0190
   2609 C          -13.1540    10.9583    13.1039 C       0      f0     0.0059
   2610 C          -11.1154    12.7521    14.6157 C       0      f0    -0.0240
   2611 C          -10.8343    11.4624    13.7893 C       0      f0     0.0115
   2612 H          -10.2673    13.3325    14.4049 H       0      f0     0.0253
   2613 C           -9.6383    11.1373    13.1840 C       0      f0     0.0340
   2614 H           -8.7202    14.0757    12.1874 H       0      f0     0.0246
   2615 H           -8.1067    12.8324    15.0539 H       0      f0     0.0634
   2616 C           -8.3752    10.7313    12.6484 C       0      f0     0.0149
   2617 C           -7.6885    11.6530    14.8688 C       0      f0    -0.0012
   2618 C           -7.1141    11.0829    13.5909 C       0      f0     0.0108
   2619 H           -6.7997    13.6840    11.2947 H       0      f0     0.0172
   2620 C           -5.8470    10.7712    13.2133 C       0      f0    -0.0103
   2621 H           -5.4879    13.3727    15.4014 H       0      f0     0.0733
   2622 C           -4.4827    12.9195   -15.3682 C      94     f94    -0.0188
   2623 H           -4.7806    13.3457    11.7120 H       0      f0     0.0152
   2624 C           -4.7804    10.3438    12.6160 C       0      f0    -0.0095
   2625 C           -3.4802    12.9089    14.7710 C      94     f94    -0.0212
   2626 H           -3.3279    13.2813    13.8069 H       0      f0     0.0147
   2627 C           -2.7583    13.9856    11.3748 C      85     f85    -0.0126
   2628 C           -2.4746    12.4479   -15.4372 C      94     f94    -0.0126
   2629 C           -2.0538    10.4465    12.3448 C     124    f124    -0.0082
   2630 H           -2.4485    13.8401    12.4993 H       0      f0     0.0149
   2631 H           -1.5641    12.3504    15.3699 H       0      f0     0.0355
   2632 C           -1.1446    11.7331    12.1325 C     124    f124    -0.0063
   2633 C            0.0768    10.9681    11.9849 C     124    f124    -0.0032
   2634 H            0.2290    11.2619    14.2820 H       0      f0     0.0108
   2635 C            0.3806    13.9387    11.1718 C      32     f32     0.0082
   2636 C            0.9164    13.1917    12.2306 C      32     f32    -0.0771
   2637 C            1.3044    13.7461    13.2565 C      32     f32     0.2754
   2638 C            1.3245    11.6376    13.8713 C      32     f32     0.1887
   2639 C            1.4089    11.7233    12.2665 C      32     f32    -0.0386
   2640 O            1.5692    13.0120    14.5290 O      32     f32    -0.4516
   2641 H            2.4224    11.5699    11.8915 H       0      f0     0.0462
   2642 C            2.4411    10.5003    13.8830 C       0      f0    -0.0185
   2643 C            5.0284    12.6465    14.7518 C       0      f0    -0.0029
   2644 C            6.0908    11.9501    14.2443 C      26     f26     0.0189
   2645 C            6.1530    10.2774    14.2854 C      26     f26    -0.0035
   2646 H            7.3908    11.8186    11.9488 H       0      f0     0.0573
   2647 C            7.4790    12.4134    14.0888 C      26     f26    -0.0056
   2648 C            7.7923    13.7855    13.5929 C       0      f0    -0.0145
   2649 C            8.3666    11.6453    11.5746 C      87     f87    -0.0244
   2650 C            8.3761    11.3350    14.1556 C      26     f26    -0.0060
   2651 C            9.0610    14.1213    13.2835 C       0      f0    -0.0025
   2652 C            9.6463    11.9111    12.3448 C      87     f87     0.0027
   2653 C            9.7356    11.2666    13.5716 C       0      f0     0.0053
   2654 C           10.4541    14.2953    13.0045 C       0      f0    -0.0094
   2655 C           10.8694    12.1473    11.5469 C      87     f87    -0.0232
   2656 C           10.5983    11.2106    14.7359 C       0      f0    -0.0204
   2657 C           11.8193    13.7853    12.8590 C       0      f0    -0.0111
   2658 H           11.7505    11.2588    14.5993 H       0      f0     0.0224
   2659 C           12.2094    12.5936    12.1790 C       0      f0     0.0477
   2660 C           13.3951    11.8325    12.4437 C       0      f0    -0.0019
   2661 C           13.7877    13.7647    15.1161 C       0      f0     0.0044
   2662 C           14.2392    11.0514    12.3106 C       0      f0     0.0426
   2663 B           14.9646   -14.4820    15.5736 B     136     BOX     0.0000
   2664 B          -14.9646   -14.4820    15.5736 B     136     BOX     0.0000
   2665 B          -14.9646    14.4820    15.5736 B     136     BOX     0.0000
   2666 B           14.9646    14.4820    15.5736 B     136     BOX     0.0000
   2667 B           14.9646   -14.4820   -15.5736 B     136     BOX     0.0000
   2668 B          -14.9646   -14.4820   -15.5736 B     136     BOX     0.0000
   2669 B          -14.9646    14.4820   -15.5736 B     136     BOX     0.0000
   2670 B           14.9646    14.4820   -15.5736 B     136     BOX     0.0000
@<TRIPOS>BOND
     1      1      4      1
     2      3      4      1
     3      3    391      1
     4      4     55      1
     5      5      6      1
     6     23     26      1
     7     23     77      1
     8     23    410      1
     9     25     29      1
    10     27     31      1
    11     29     31      1
    12     30     31      1
    13     31     32      1
    14     32     33      1
    15     32     34      1
    16     33     35      1
    17     34     36      1
    18     35     37      1
    19     36     37      1
    20     36     89      1
    21     37     38      1
    22     48     51      1
    23     49     50      1
    24     49     51      1
    25     54    111      1
    26     57     58      1
    27     58    111      1
    28     58    120      1
    29     62     65      1
    30     65     66      1
    31     65     68      1
    32     65     69      1
    33     66     71      1
    34     69     70      1
    35     69     72      1
    36     71     72      1
    37     71    463      1
    38     72     74      1
    39     74     77      1
    40     74    464      1
    41     77     79      1
    42     81    471      1
    43     85    482      1
    44     86   2376      1
    45     90   2376      1
    46     90   2381      1
    47     92    489      1
    48     96    491      1
    49     97   2381      1
    50     99    100      1
    51     99    153      1
    52     99    155      1
    53    100    103      1
    54    100    496      1
    55    110    112      1
    56    110    118      1
    57    110    166      1
    58    111    113      1
    59    112    113      1
    60    112    114      1
    61    113    116      1
    62    114    117      1
    63    114    119      1
    64    114    512      1
    65    118    119      1
    66    118    174      1
    67    119    517      1
    68    155    158      1
    69    155    550      1
    70    157    158      1
    71    158    159      1
    72    159    160      1
    73    159    162      1
    74    160    550      1
    75    164    166      1
    76    165    166      1
    77    165    169      1
    78    165    556      1
    79    168    169      1
    80    169    172      1
    81    172    173      1
    82    172    174      1
    83    174    175      1
    84    176    177      1
    85    176    226      1
    86    177    178      1
    87    178    179      1
    88    178    233      1
    89    219    614      1
    90    220    223      1
    91    222    223      1
    92    222    224      1
    93    223    225      1
    94    224    226      1
    95    225    228      1
    96    225    290      1
    97    226    231      1
    98    228    231      1
    99    228    294      1
   100    229    233      1
   101    230    232      1
   102    230    621      1
   103    231    232      1
   104    232    233      1
   105    232    234      1
   106    235    236      1
   107    235    294      1
   108    237    243      1
   109    237    304      1
   110    237    626      1
   111    241    243      1
   112    243    244      1
   113    244    246      1
   114    244    305      1
   115    250    636      1
   116    251    254      1
   117    253    636      1
   118    254    257      1
   119    256   2532      1
   120    256   2540      1
   121    257    259      1
   122    257    312      1
   123    260   2540      1
   124    263    264      1
   125    263    649      1
   126    264    320      1
   127    264    705      1
   128    285    667      1
   129    295    296      1
   130    295    298      1
   131    295    348      1
   132    298    299      1
   133    298    301      1
   134    299    302      1
   135    299    350      1
   136    300    304      1
   137    304    305      1
   138    304    684      1
   139    308    310      1
   140    310    312      1
   141    312    314      1
   142    313    365      1
   143    313    753      1
   144    316    319      1
   145    316    371      1
   146    318    319      1
   147    319    321      1
   148    321    326      1
   149    324    327      1
   150    327    331      1
   151    327    711      1
   152    330    331      1
   153    331    333      1
   154    333    334      1
   155    333    335      1
   156    334    713      1
   157    334    717      1
   158    347    348      1
   159    348    350      1
   160    354    356      1
   161    356    357      1
   162    356   2622      1
   163    357    358      1
   164    357   2628      1
   165    360    362      1
   166    362    364      1
   167    362    365      1
   168    363    364      1
   169    363    366      1
   170    364    368      1
   171    365    370      1
   172    366    367      1
   173    367    368      1
   174    368    370      1
   175    370    371      1
   176    376    378      1
   177    376    380      1
   178    376    765      1
   179    377    378      1
   180    378    381      1
   181    379    380      1
   182    380    382      1
   183    381    383      1
   184    382    383      1
   185    382    385      1
   186    383    768      1
   187    388    390      1
   188    388    445      1
   189    389    390      1
   190    390    392      1
   191    390    442      1
   192    401    403      1
   193    403    783      1
   194    406    407      1
   195    407    408      1
   196    408    409      1
   197    408    790      1
   198    409    796      1
   199    410    412      1
   200    410    467      1
   201    413    416      1
   202    414    415      1
   203    414    416      1
   204    414    749      1
   205    415    799      1
   206    415    805      1
   207    416    418      1
   208    417    418      1
   209    418    419      1
   210    418    420      1
   211    419    421      1
   212    419    805      1
   213    421    422      1
   214    421    812      1
   215    423    812      1
   216    425    430      1
   217    425    488      1
   218    425    814      1
   219    427    490      1
   220    442    771      1
   221    443    444      1
   222    443    509      1
   223    444    446      1
   224    444    508      1
   225    445    447      1
   226    451    453      1
   227    453    454      1
   228    453    456      1
   229    454    899      1
   230    454    907      1
   231    455    456      1
   232    456    459      1
   233    458    461      1
   234    459    460      1
   235    459    462      1
   236    460    855      1
   237    460    907      1
   238    461    462      1
   239    461    464      1
   240    462    465      1
   241    464    467      1
   242    465    468      1
   243    465    856      1
   244    467    468      1
   245    468    469      1
   246    470    471      1
   247    470    472      1
   248    471    473      1
   249    472    475      1
   250    472    476      1
   251    473    474      1
   252    473    475      1
   253    475    477      1
   254    476    865      1
   255    478    481      1
   256    478    482      1
   257    480    481      1
   258    480    484      1
   259    480    865      1
   260    481    483      1
   261    482    485      1
   262    483    485      1
   263    483    486      1
   264    484    486      1
   265    484    870      1
   266    485    489      1
   267    486    488      1
   268    488    490      1
   269    489    491      1
   270    490    491      1
   271    491    492      1
   272    494    496      1
   273    496    498      1
   274    496    499      1
   275    498    544      1
   276    498    549      1
   277    501    502      1
   278    502    503      1
   279    505    506      1
   280    505    509      1
   281    506    890      1
   282    509    511      1
   283    533    534      1
   284    534    536      1
   285    534    587      1
   286    535    536      1
   287    536    538      1
   288    538    592      1
   289    538    922      1
   290    547    549      1
   291    548    551      1
   292    549    550      1
   293    549    553      1
   294    551    552      1
   295    551    554      1
   296    552    608      1
   297    552    886      1
   298    553    554      1
   299    564    565      1
   300    565    568      1
   301    565    620      1
   302    568    570      1
   303    568    625      1
   304    581    637      1
   305    584    642      1
   306    586    587      1
   307    587    589      1
   308    589    591      1
   309    589    592      1
   310    592    594      1
   311    595    598      1
   312    595    654      1
   313    595    978      1
   314    598    600      1
   315    598    660      1
   316    600    601      1
   317    600    605      1
   318    603    605      1
   319    603    660      1
   320    605    607      1
   321    612    614      1
   322    613    615      1
   323    613    994      1
   324    614    615      1
   325    614    669      1
   326    615    616      1
   327    618    620      1
   328    620    621      1
   329    621    624      1
   330    623    625      1
   331    624    625      1
   332    624    626      1
   333    625    627      1
   334    628    685      1
   335    631    685      1
   336    633    634      1
   337    634    636      1
   338    634    693      1
   339    635    637      1
   340    636    638      1
   341    637    639      1
   342    637    642      1
   343    638    639      1
   344    638    640      1
   345    639    641      1
   346    640    646      1
   347    640    695      1
   348    641    643      1
   349    641    644      1
   350    642    643      1
   351    643   1029      1
   352    645    647      1
   353    646    647      1
   354    646    703      1
   355    647    649      1
   356    648    649      1
   357    651    654      1
   358    654    656      1
   359    655    656      1
   360    656    657      1
   361    657    658      1
   362    657    660      1
   363    659    711      1
   364    663    665      1
   365    664    666      1
   366    664   1048      1
   367    665    666      1
   368    667    669      1
   369    667    670      1
   370    669    670      1
   371    670    671      1
   372    680    682      1
   373    680   1009      1
   374    681    683      1
   375    682    683      1
   376    682    685      1
   377    683    686      1
   378    685    686      1
   379    686    687      1
   380    686    688      1
   381    691    693      1
   382    693    695      1
   383    695    696      1
   384    697    753      1
   385    700    702      1
   386    700    703      1
   387    702    704      1
   388    702    753      1
   389    703    705      1
   390    704    706      1
   391    704   1141      1
   392    705    707      1
   393    711    713      1
   394    712    713      1
   395    718    721      1
   396    733    736      1
   397    733   1113      1
   398    740    741      1
   399    741    743      1
   400    743    745      1
   401    746    750      1
   402    750    751      1
   403    750   1126      1
   404    750   1130      1
   405    753    757      1
   406    754    755      1
   407    755    756      1
   408    755   1141      1
   409    756    757      1
   410    757    758      1
   411    770   1156      1
   412    770   1158      1
   413    771    836      1
   414    772    836      1
   415    773    775      1
   416    774   1103      1
   417    775    776      1
   418    775    778      1
   419    777    778      1
   420    778    779      1
   421    779    780      1
   422    780    783      1
   423    781    844      1
   424    781   1169      1
   425    781   1172      1
   426    783    784      1
   427    794   1182      1
   428    795    798      1
   429    796    799      1
   430    798    799      1
   431    798    800      1
   432    800    803      1
   433    800    860      1
   434    803    804      1
   435    803    806      1
   436    805    806      1
   437    806    809      1
   438    808    809      1
   439    809    810      1
   440    809    813      1
   441    811    812      1
   442    812    813      1
   443    813    814      1
   444    814    870      1
   445    829    834      1
   446    830    832      1
   447    830    833      1
   448    833    834      1
   449    836    837      1
   450    841   1272      1
   451    850   1172      1
   452    854    855      1
   453    855    856      1
   454    856    857      1
   455    859    914      1
   456    861    914      1
   457    861   1295      1
   458    862    864      1
   459    864    865      1
   460    864    867      1
   461    866    867      1
   462    867    868      1
   463    867    869      1
   464    869    870      1
   465    869    871      1
   466    882   1257      1
   467    883   1256      1
   468    887    888      1
   469    888    890      1
   470    888    891      1
   471    890    892      1
   472    891    938      1
   473    891   1266      1
   474    893   1266      1
   475    893   1272      1
   476    900    904      1
   477    904    906      1
   478    904   1281      1
   479    905    906      1
   480    906    951      1
   481    907    908      1
   482    910    912      1
   483    911    912      1
   484    911   1289      1
   485    911   1295      1
   486    912    914      1
   487    925    927      1
   488    927    928      1
   489    927   1312      1
   490    928    930      1
   491    928   1250      1
   492    933    988      1
   493    933   1319      1
   494    933   1324      1
   495    935    988      1
   496    938   1329      1
   497    951    952      1
   498    951    954      1
   499    954    957      1
   500    954   1341      1
   501    956    957      1
   502    957    960      1
   503    957   1343      1
   504    962    963      1
   505    962   1020      1
   506    962   1025      1
   507    979    980      1
   508    979   1365      1
   509    979   1369      1
   510    980    981      1
   511    980   1039      1
   512    981    983      1
   513    981   1046      1
   514    982    983      1
   515    982   1319      1
   516    982   1369      1
   517    983    984      1
   518    983    985      1
   519    986    989      1
   520    986   1046      1
   521    986   1048      1
   522    987    988      1
   523    998   1000      1
   524    999   1000      1
   525   1000   1002      1
   526   1000   1003      1
   527   1001   1002      1
   528   1002   1007      1
   529   1003   1004      1
   530   1003   1009      1
   531   1005   1011      1
   532   1006   1010      1
   533   1007   1010      1
   534   1007   1011      1
   535   1009   1011      1
   536   1010   1013      1
   537   1010   1387      1
   538   1011   1014      1
   539   1013   1016      1
   540   1013   1344      1
   541   1014   1017      1
   542   1014   1065      1
   543   1015   1017      1
   544   1016   1017      1
   545   1016   1391      1
   546   1017   1019      1
   547   1018   1020      1
   548   1019   1021      1
   549   1020   1021      1
   550   1021   1024      1
   551   1024   1025      1
   552   1024   1026      1
   553   1031   1032      1
   554   1031   1033      1
   555   1031   1408      1
   556   1033   1034      1
   557   1033   1035      1
   558   1035   1037      1
   559   1035   1413      1
   560   1037   1038      1
   561   1037   1039      1
   562   1039   1364      1
   563   1040   1042      1
   564   1042   1046      1
   565   1042   1047      1
   566   1044   1095      1
   567   1045   1047      1
   568   1047   1048      1
   569   1050   1053      1
   570   1051   1052      1
   571   1052   1053      1
   572   1052   1055      1
   573   1052   1435      1
   574   1053   1104      1
   575   1055   1056      1
   576   1055   1057      1
   577   1057   1105      1
   578   1057   1443      1
   579   1063   1064      1
   580   1064   1066      1
   581   1064   1118      1
   582   1064   1119      1
   583   1066   1067      1
   584   1066   1068      1
   585   1068   1124      1
   586   1068   1125      1
   587   1084   1086      1
   588   1086   1088      1
   589   1086   1090      1
   590   1088   1089      1
   591   1089   1091      1
   592   1089   1419      1
   593   1089   1471      1
   594   1090   1091      1
   595   1091   1092      1
   596   1092   1094      1
   597   1092   1095      1
   598   1093   1094      1
   599   1094   1098      1
   600   1095   1099      1
   601   1095   1474      1
   602   1097   1098      1
   603   1098   1099      1
   604   1098   1100      1
   605   1099   1101      1
   606   1099   1477      1
   607   1102   1104      1
   608   1104   1105      1
   609   1105   1109      1
   610   1106   1107      1
   611   1107   1110      1
   612   1110   1113      1
   613   1111   1113      1
   614   1116   1118      1
   615   1118   1122      1
   616   1122   1123      1
   617   1123   1124      1
   618   1123   1506      1
   619   1124   1127      1
   620   1126   1128      1
   621   1127   1129      1
   622   1127   1509      1
   623   1128   1129      1
   624   1128   1131      1
   625   1129   1130      1
   626   1129   1132      1
   627   1130   1133      1
   628   1137   1141      1
   629   1153   1155      1
   630   1154   1155      1
   631   1154   1535      1
   632   1155   1156      1
   633   1156   1157      1
   634   1166   1546      1
   635   1167   1169      1
   636   1169   1171      1
   637   1169   1220      1
   638   1172   1228      1
   639   1176   1228      1
   640   1179   1182      1
   641   1182   1186      1
   642   1182   1233      1
   643   1183   1184      1
   644   1184   1187      1
   645   1184   1236      1
   646   1186   1187      1
   647   1186   1188      1
   648   1187   1189      1
   649   1189   1190      1
   650   1190   1567      1
   651   1190   1571      1
   652   1192   1571      1
   653   1203   1586      1
   654   1209   1259      1
   655   1213   1214      1
   656   1213   1215      1
   657   1214   1263      1
   658   1215   1216      1
   659   1215   1217      1
   660   1217   1218      1
   661   1217   1267      1
   662   1218   1219      1
   663   1219   1221      1
   664   1219   1274      1
   665   1220   1223      1
   666   1221   1223      1
   667   1221   1224      1
   668   1222   1224      1
   669   1222   1275      1
   670   1222   1607      1
   671   1223   1226      1
   672   1224   1225      1
   673   1225   1227      1
   674   1225   1609      1
   675   1226   1227      1
   676   1226   1228      1
   677   1227   1611      1
   678   1230   1286      1
   679   1232   1233      1
   680   1233   1234      1
   681   1234   1235      1
   682   1234   1236      1
   683   1235   1295      1
   684   1236   1237      1
   685   1250   1251      1
   686   1250   1314      1
   687   1252   1254      1
   688   1253   1256      1
   689   1254   1255      1
   690   1254   1258      1
   691   1255   1260      1
   692   1255   1320      1
   693   1256   1257      1
   694   1256   1259      1
   695   1257   1260      1
   696   1258   1259      1
   697   1258   1261      1
   698   1260   1323      1
   699   1262   1264      1
   700   1263   1264      1
   701   1263   1267      1
   702   1264   1265      1
   703   1264   1268      1
   704   1266   1268      1
   705   1267   1269      1
   706   1268   1270      1
   707   1269   1271      1
   708   1269   1646      1
   709   1270   1271      1
   710   1270   1273      1
   711   1271   1274      1
   712   1272   1274      1
   713   1274   1276      1
   714   1279   1280      1
   715   1279   1281      1
   716   1280   1284      1
   717   1280   1652      1
   718   1281   1341      1
   719   1284   1285      1
   720   1284   1657      1
   721   1286   1288      1
   722   1286   1289      1
   723   1287   1288      1
   724   1288   1290      1
   725   1289   1291      1
   726   1290   1291      1
   727   1290   1292      1
   728   1291   1293      1
   729   1294   1295      1
   730   1310   1312      1
   731   1312   1314      1
   732   1313   1314      1
   733   1315   1317      1
   734   1316   1318      1
   735   1317   1319      1
   736   1317   1321      1
   737   1318   1320      1
   738   1318   1321      1
   739   1318   1692      1
   740   1320   1636      1
   741   1321   1322      1
   742   1322   1323      1
   743   1325   1327      1
   744   1325   1328      1
   745   1326   1328      1
   746   1326   1374      1
   747   1328   1331      1
   748   1340   1342      1
   749   1341   1342      1
   750   1342   1343      1
   751   1343   1344      1
   752   1344   1390      1
   753   1350   1402      1
   754   1352   1357      1
   755   1352   1405      1
   756   1352   1406      1
   757   1357   1358      1
   758   1357   1412      1
   759   1361   1363      1
   760   1363   1366      1
   761   1363   1367      1
   762   1364   1365      1
   763   1364   1413      1
   764   1365   1366      1
   765   1366   1367      1
   766   1368   1369      1
   767   1370   1372      1
   768   1370   1746      1
   769   1371   1372      1
   770   1371   1427      1
   771   1376   1377      1
   772   1376   1436      1
   773   1377   1753      1
   774   1377   1812      1
   775   1381   1384      1
   776   1381   1441      1
   777   1381   1442      1
   778   1381   1444      1
   779   1382   1384      1
   780   1384   1386      1
   781   1385   1386      1
   782   1386   1387      1
   783   1387   1388      1
   784   1388   1448      1
   785   1390   1391      1
   786   1390   1392      1
   787   1391   1394      1
   788   1399   1402      1
   789   1402   1405      1
   790   1402   1784      1
   791   1403   1406      1
   792   1405   1407      1
   793   1406   1408      1
   794   1407   1410      1
   795   1407   1788      1
   796   1408   1412      1
   797   1412   1413      1
   798   1421   1423      1
   799   1421   1424      1
   800   1421   1805      1
   801   1422   1425      1
   802   1423   1427      1
   803   1423   1746      1
   804   1424   1425      1
   805   1424   1426      1
   806   1425   1427      1
   807   1432   1435      1
   808   1433   1434      1
   809   1434   1435      1
   810   1434   1436      1
   811   1435   1437      1
   812   1436   1438      1
   813   1437   1438      1
   814   1437   1486      1
   815   1438   1440      1
   816   1443   1446      1
   817   1444   1445      1
   818   1444   1446      1
   819   1444   1448      1
   820   1446   1447      1
   821   1447   1449      1
   822   1447   1493      1
   823   1448   1449      1
   824   1449   1450      1
   825   1452   1454      1
   826   1454   1455      1
   827   1454   1837      1
   828   1455   1456      1
   829   1456   1458      1
   830   1456   1460      1
   831   1458   1845      1
   832   1458   1846      1
   833   1472   1473      1
   834   1472   1531      1
   835   1472   1533      1
   836   1473   1476      1
   837   1476   1478      1
   838   1476   1536      1
   839   1481   1483      1
   840   1482   1484      1
   841   1482   1867      1
   842   1483   1485      1
   843   1483   1486      1
   844   1484   1485      1
   845   1484   1873      1
   846   1485   1487      1
   847   1486   1488      1
   848   1487   1488      1
   849   1487   1489      1
   850   1488   1490      1
   851   1491   1494      1
   852   1494   1498      1
   853   1494   1881      1
   854   1498   1499      1
   855   1498   1884      1
   856   1502   1884      1
   857   1505   1506      1
   858   1506   1509      1
   859   1509   1510      1
   860   1511   1513      1
   861   1512   1514      1
   862   1513   1514      1
   863   1513   1516      1
   864   1514   1517      1
   865   1516   1518      1
   866   1516   1845      1
   867   1517   1520      1
   868   1518   1521      1
   869   1518   1901      1
   870   1520   1521      1
   871   1520   1523      1
   872   1521   1524      1
   873   1533   1534      1
   874   1533   1536      1
   875   1536   1540      1
   876   1537   1539      1
   877   1538   1541      1
   878   1539   1541      1
   879   1545   1547      1
   880   1547   1548      1
   881   1547   1927      1
   882   1548   1549      1
   883   1548   1878      1
   884   1549   1554      1
   885   1549   1931      1
   886   1550   1606      1
   887   1552   1554      1
   888   1554   1556      1
   889   1555   1556      1
   890   1556   1936      1
   891   1567   1569      1
   892   1567   1621      1
   893   1568   1569      1
   894   1569   1570      1
   895   1570   1571      1
   896   1570   1572      1
   897   1573   1955      1
   898   1576   1578      1
   899   1577   1578      1
   900   1577   1905      1
   901   1578   1579      1
   902   1579   1582      1
   903   1579   1583      1
   904   1580   1582      1
   905   1582   1584      1
   906   1586   1587      1
   907   1586   1632      1
   908   1587   1588      1
   909   1587   1589      1
   910   1588   1635      1
   911   1588   1966      1
   912   1592   1596      1
   913   1594   1597      1
   914   1596   1597      1
   915   1596   1599      1
   916   1597   1600      1
   917   1598   1599      1
   918   1599   1601      1
   919   1600   1602      1
   920   1600   1979      1
   921   1601   1602      1
   922   1601   1603      1
   923   1602   1604      1
   924   1604   1606      1
   925   1604   1981      1
   926   1606   1984      1
   927   1607   1609      1
   928   1607   1650      1
   929   1609   1612      1
   930   1622   1623      1
   931   1622   1671      1
   932   1622   2006      1
   933   1625   1628      1
   934   1625   2011      1
   935   1625   2012      1
   936   1630   1632      1
   937   1632   1633      1
   938   1633   1634      1
   939   1633   1635      1
   940   1639   1696      1
   941   1643   1700      1
   942   1645   1647      1
   943   1647   1649      1
   944   1647   1709      1
   945   1647   2034      1
   946   1648   1649      1
   947   1649   1651      1
   948   1650   1651      1
   949   1651   1653      1
   950   1651   1654      1
   951   1652   1655      1
   952   1653   2039      1
   953   1653   2043      1
   954   1654   1655      1
   955   1654   1656      1
   956   1655   1657      1
   957   1656   1658      1
   958   1656   2043      1
   959   1657   1660      1
   960   1658   1659      1
   961   1658   1660      1
   962   1668   1669      1
   963   1669   1671      1
   964   1669   2056      1
   965   1670   1671      1
   966   1671   1674      1
   967   1676   2116      1
   968   1678   1682      1
   969   1678   2064      1
   970   1682   1684      1
   971   1682   2069      1
   972   1691   1743      1
   973   1691   2074      1
   974   1693   1694      1
   975   1694   1696      1
   976   1694   2076      1
   977   1695   1697      1
   978   1696   2081      1
   979   1699   1701      1
   980   1700   1701      1
   981   1700   1702      1
   982   1701   1704      1
   983   1702   2031      1
   984   1705   1756      1
   985   1731   2114      1
   986   1732   1734      1
   987   1732   1790      1
   988   1732   2114      1
   989   1734   1736      1
   990   1734   2119      1
   991   1739   1740      1
   992   1739   1799      1
   993   1740   1742      1
   994   1740   2124      1
   995   1741   1742      1
   996   1742   1743      1
   997   1743   2126      1
   998   1744   1746      1
   999   1744   1748      1
  1000   1745   1748      1
  1001   1747   1748      1
  1002   1747   2126      1
  1003   1747   2131      1
  1004   1748   1749      1
  1005   1749   1750      1
  1006   1750   2131      1
  1007   1752   1753      1
  1008   1753   1755      1
  1009   1755   1756      1
  1010   1755   1757      1
  1011   1756   1759      1
  1012   1757   1760      1
  1013   1757   1815      1
  1014   1758   1759      1
  1015   1759   1760      1
  1016   1759   1761      1
  1017   1760   1762      1
  1018   1762   1765      1
  1019   1762   1817      1
  1020   1765   1767      1
  1021   1765   1823      1
  1022   1770   1772      1
  1023   1772   1773      1
  1024   1772   1774      1
  1025   1773   1774      1
  1026   1773   1775      1
  1027   1774   1776      1
  1028   1779   1780      1
  1029   1779   1781      1
  1030   1779   1782      1
  1031   1780   1783      1
  1032   1780   1836      1
  1033   1781   1783      1
  1034   1781   2157      1
  1035   1782   1784      1
  1036   1783   2215      1
  1037   1784   1786      1
  1038   1785   1786      1
  1039   1786   1788      1
  1040   1787   2162      1
  1041   1788   1791      1
  1042   1790   2163      1
  1043   1792   1795      1
  1044   1794   1797      1
  1045   1795   1798      1
  1046   1795   1852      1
  1047   1795   1855      1
  1048   1797   1798      1
  1049   1797   1799      1
  1050   1797   2171      1
  1051   1799   1802      1
  1052   1802   1804      1
  1053   1802   1806      1
  1054   1804   2173      1
  1055   1804   2179      1
  1056   1812   1813      1
  1057   1813   1814      1
  1058   1813   1815      1
  1059   1815   1817      1
  1060   1816   1818      1
  1061   1817   1818      1
  1062   1817   2142      1
  1063   1818   1821      1
  1064   1818   2198      1
  1065   1821   1822      1
  1066   1821   1823      1
  1067   1821   1824      1
  1068   1823   2205      1
  1069   1824   1825      1
  1070   1824   2203      1
  1071   1825   1826      1
  1072   1826   1881      1
  1073   1826   1882      1
  1074   1834   1837      1
  1075   1837   1841      1
  1076   1839   1841      1
  1077   1841   1845      1
  1078   1844   1847      1
  1079   1846   1850      1
  1080   1847   1849      1
  1081   1847   1850      1
  1082   1847   2228      1
  1083   1850   1851      1
  1084   1850   1852      1
  1085   1852   1854      1
  1086   1853   1855      1
  1087   1853   2228      1
  1088   1853   2231      1
  1089   1855   2230      1
  1090   1867   1869      1
  1091   1869   1870      1
  1092   1869   1874      1
  1093   1873   1874      1
  1094   1874   1876      1
  1095   1880   1881      1
  1096   1882   1883      1
  1097   1882   1885      1
  1098   1884   1885      1
  1099   1885   1887      1
  1100   1893   1896      1
  1101   1894   1897      1
  1102   1896   1897      1
  1103   1896   1898      1
  1104   1897   1899      1
  1105   1898   1900      1
  1106   1898   2274      1
  1107   1899   1900      1
  1108   1899   1901      1
  1109   1900   1902      1
  1110   1901   1903      1
  1111   1902   1903      1
  1112   1902   2280      1
  1113   1903   1904      1
  1114   1906   1907      1
  1115   1906   1908      1
  1116   1908   1909      1
  1117   1908   2287      1
  1118   1909   2289      1
  1119   1923   1925      1
  1120   1925   2305      1
  1121   1927   1929      1
  1122   1928   1929      1
  1123   1929   1931      1
  1124   1931   1933      1
  1125   1933   1935      1
  1126   1933   1936      1
  1127   1936   1939      1
  1128   1938   1939      1
  1129   1938   1941      1
  1130   1940   1941      1
  1131   1941   1944      1
  1132   1944   2318      1
  1133   1945   1948      1
  1134   1948   1950      1
  1135   1948   1952      1
  1136   1949   2319      1
  1137   1951   1952      1
  1138   1952   1953      1
  1139   1953   1954      1
  1140   1953   1955      1
  1141   1954   1956      1
  1142   1955   1959      1
  1143   1956   1959      1
  1144   1957   1958      1
  1145   1957   2007      1
  1146   1957   2325      1
  1147   1957   2378      1
  1148   1959   1960      1
  1149   1961   2011      1
  1150   1963   2332      1
  1151   1968   2024      1
  1152   1972   2025      1
  1153   1972   2026      1
  1154   1979   1981      1
  1155   1981   1982      1
  1156   1982   1983      1
  1157   1982   1984      1
  1158   1984   1985      1
  1159   2006   2008      1
  1160   2006   2058      1
  1161   2011   2012      1
  1162   2020   2022      1
  1163   2022   2023      1
  1164   2022   2024      1
  1165   2023   2026      1
  1166   2024   2025      1
  1167   2030   2031      1
  1168   2031   2033      1
  1169   2031   2034      1
  1170   2033   2037      1
  1171   2033   2084      1
  1172   2034   2036      1
  1173   2036   2037      1
  1174   2036   2039      1
  1175   2055   2056      1
  1176   2055   2057      1
  1177   2056   2058      1
  1178   2057   2060      1
  1179   2057   2112      1
  1180   2058   2059      1
  1181   2060   2062      1
  1182   2060   2116      1
  1183   2061   2433      1
  1184   2062   2064      1
  1185   2063   2064      1
  1186   2064   2066      1
  1187   2065   2435      1
  1188   2065   2437      1
  1189   2066   2068      1
  1190   2066   2069      1
  1191   2069   2070      1
  1192   2074   2075      1
  1193   2074   2076      1
  1194   2075   2077      1
  1195   2076   2079      1
  1196   2077   2078      1
  1197   2077   2079      1
  1198   2079   2080      1
  1199   2080   2081      1
  1200   2090   2093      1
  1201   2093   2096      1
  1202   2093   2150      1
  1203   2095   2096      1
  1204   2096   2099      1
  1205   2099   2101      1
  1206   2099   2154      1
  1207   2109   2158      1
  1208   2109   2479      1
  1209   2110   2111      1
  1210   2110   2158      1
  1211   2110   2161      1
  1212   2111   2112      1
  1213   2112   2114      1
  1214   2114   2116      1
  1215   2116   2119      1
  1216   2119   2121      1
  1217   2123   2124      1
  1218   2123   2173      1
  1219   2124   2126      1
  1220   2125   2493      1
  1221   2126   2127      1
  1222   2128   2499      1
  1223   2129   2498      1
  1224   2130   2131      1
  1225   2130   2184      1
  1226   2132   2133      1
  1227   2132   2135      1
  1228   2133   2134      1
  1229   2133   2136      1
  1230   2134   2508      1
  1231   2140   2508      1
  1232   2141   2193      1
  1233   2142   2143      1
  1234   2142   2192      1
  1235   2142   2197      1
  1236   2147   2149      1
  1237   2147   2150      1
  1238   2148   2149      1
  1239   2148   2204      1
  1240   2149   2151      1
  1241   2150   2152      1
  1242   2151   2152      1
  1243   2152   2154      1
  1244   2158   2159      1
  1245   2159   2160      1
  1246   2159   2538      1
  1247   2160   2161      1
  1248   2160   2164      1
  1249   2161   2163      1
  1250   2162   2163      1
  1251   2162   2164      1
  1252   2164   2165      1
  1253   2169   2171      1
  1254   2171   2172      1
  1255   2171   2173      1
  1256   2173   2174      1
  1257   2176   2554      1
  1258   2180   2182      1
  1259   2182   2184      1
  1260   2182   2186      1
  1261   2183   2186      1
  1262   2183   2241      1
  1263   2185   2503      1
  1264   2187   2249      1
  1265   2188   2244      1
  1266   2189   2193      1
  1267   2189   2564      1
  1268   2189   2565      1
  1269   2190   2194      1
  1270   2190   2565      1
  1271   2191   2195      1
  1272   2193   2196      1
  1273   2194   2195      1
  1274   2194   2196      1
  1275   2194   2199      1
  1276   2195   2198      1
  1277   2196   2197      1
  1278   2197   2198      1
  1279   2202   2207      1
  1280   2203   2205      1
  1281   2203   2206      1
  1282   2204   2205      1
  1283   2204   2207      1
  1284   2206   2208      1
  1285   2206   2260      1
  1286   2207   2208      1
  1287   2208   2263      1
  1288   2214   2582      1
  1289   2217   2537      1
  1290   2219   2220      1
  1291   2220   2221      1
  1292   2220   2223      1
  1293   2221   2224      1
  1294   2221   2587      1
  1295   2223   2225      1
  1296   2223   2227      1
  1297   2224   2227      1
  1298   2224   2590      1
  1299   2225   2228      1
  1300   2225   2280      1
  1301   2226   2227      1
  1302   2227   2229      1
  1303   2231   2236      1
  1304   2231   2286      1
  1305   2233   2236      1
  1306   2236   2238      1
  1307   2236   2286      1
  1308   2240   2241      1
  1309   2240   2242      1
  1310   2241   2244      1
  1311   2242   2243      1
  1312   2242   2296      1
  1313   2243   2244      1
  1314   2246   2250      1
  1315   2250   2251      1
  1316   2251   2253      1
  1317   2251   2254      1
  1318   2252   2253      1
  1319   2253   2255      1
  1320   2254   2257      1
  1321   2255   2257      1
  1322   2255   2258      1
  1323   2256   2258      1
  1324   2257   2261      1
  1325   2258   2260      1
  1326   2260   2262      1
  1327   2261   2262      1
  1328   2261   2619      1
  1329   2262   2265      1
  1330   2265   2267      1
  1331   2267   2268      1
  1332   2268   2623      1
  1333   2268   2627      1
  1334   2273   2635      1
  1335   2274   2275      1
  1336   2274   2277      1
  1337   2276   2278      1
  1338   2277   2278      1
  1339   2277   2279      1
  1340   2278   2281      1
  1341   2279   2280      1
  1342   2279   2282      1
  1343   2281   2282      1
  1344   2282   2283      1
  1345   2282   2284      1
  1346   2285   2288      1
  1347   2286   2287      1
  1348   2288   2290      1
  1349   2288   2649      1
  1350   2290   2291      1
  1351   2290   2292      1
  1352   2292   2294      1
  1353   2292   2655      1
  1354   2294   2296      1
  1355   2296   2298      1
  1356   2297   2298      1
  1357   2299   2300      1
  1358   2300   2301      1
  1359   2301   2304      1
  1360   2302   2303      1
  1361   2302   2350      1
  1362   2303   2304      1
  1363   2304   2305      1
  1364   2305   2306      1
  1365   2306   2309      1
  1366   2316   2317      1
  1367   2317   2365      1
  1368   2317   2366      1
  1369   2318   2319      1
  1370   2319   2321      1
  1371   2321   2322      1
  1372   2322   2323      1
  1373   2323   2324      1
  1374   2324   2326      1
  1375   2325   2326      1
  1376   2325   2373      1
  1377   2326   2327      1
  1378   2327   2329      1
  1379   2329   2331      1
  1380   2329   2332      1
  1381   2332   2333      1
  1382   2332   2378      1
  1383   2335   2336      1
  1384   2336   2338      1
  1385   2336   2393      1
  1386   2338   2341      1
  1387   2338   2393      1
  1388   2354   2355      1
  1389   2355   2356      1
  1390   2356   2357      1
  1391   2357   2405      1
  1392   2365   2366      1
  1393   2366   2367      1
  1394   2374   2375      1
  1395   2375   2377      1
  1396   2377   2379      1
  1397   2378   2380      1
  1398   2379   2380      1
  1399   2379   2382      1
  1400   2382   2383      1
  1401   2388   2442      1
  1402   2400   2402      1
  1403   2402   2404      1
  1404   2402   2405      1
  1405   2405   2407      1
  1406   2430   2432      1
  1407   2431   2432      1
  1408   2431   2433      1
  1409   2432   2434      1
  1410   2433   2435      1
  1411   2434   2435      1
  1412   2436   2438      1
  1413   2437   2438      1
  1414   2437   2440      1
  1415   2438   2442      1
  1416   2439   2441      1
  1417   2439   2492      1
  1418   2440   2444      1
  1419   2440   2445      1
  1420   2441   2446      1
  1421   2442   2445      1
  1422   2444   2446      1
  1423   2444   2498      1
  1424   2445   2447      1
  1425   2446   2448      1
  1426   2452   2454      1
  1427   2453   2455      1
  1428   2454   2456      1
  1429   2454   2457      1
  1430   2455   2457      1
  1431   2455   2509      1
  1432   2457   2459      1
  1433   2458   2460      1
  1434   2459   2460      1
  1435   2459   2461      1
  1436   2460   2462      1
  1437   2460   2510      1
  1438   2475   2478      1
  1439   2478   2479      1
  1440   2478   2480      1
  1441   2479   2480      1
  1442   2490   2492      1
  1443   2491   2493      1
  1444   2492   2493      1
  1445   2493   2498      1
  1446   2494   2495      1
  1447   2495   2496      1
  1448   2495   2497      1
  1449   2495   2555      1
  1450   2497   2498      1
  1451   2497   2499      1
  1452   2499   2556      1
  1453   2504   2564      1
  1454   2508   2509      1
  1455   2509   2510      1
  1456   2510   2512      1
  1457   2511   2512      1
  1458   2511   2569      1
  1459   2511   2571      1
  1460   2512   2513      1
  1461   2513   2514      1
  1462   2513   2515      1
  1463   2514   2517      1
  1464   2514   2571      1
  1465   2517   2518      1
  1466   2517   2576      1
  1467   2520   2576      1
  1468   2531   2532      1
  1469   2532   2535      1
  1470   2533   2534      1
  1471   2533   2535      1
  1472   2533   2536      1
  1473   2534   2583      1
  1474   2535   2539      1
  1475   2536   2537      1
  1476   2536   2584      1
  1477   2537   2538      1
  1478   2538   2541      1
  1479   2539   2540      1
  1480   2539   2541      1
  1481   2541   2542      1
  1482   2550   2551      1
  1483   2551   2552      1
  1484   2551   2554      1
  1485   2552   2553      1
  1486   2553   2555      1
  1487   2554   2557      1
  1488   2555   2556      1
  1489   2556   2557      1
  1490   2557   2558      1
  1491   2561   2563      1
  1492   2561   2564      1
  1493   2562   2563      1
  1494   2563   2565      1
  1495   2571   2573      1
  1496   2572   2573      1
  1497   2578   2629      1
  1498   2580   2581      1
  1499   2581   2582      1
  1500   2581   2629      1
  1501   2582   2633      1
  1502   2583   2584      1
  1503   2584   2588      1
  1504   2591   2645      1
  1505   2595   2645      1
  1506   2595   2650      1
  1507   2625   2626      1
  1508   2627   2630      1
  1509   2629   2632      1
  1510   2632   2633      1
  1511   2633   2639      1
  1512   2634   2638      1
  1513   2635   2636      1
  1514   2636   2637      1
  1515   2636   2639      1
  1516   2637   2640      1
  1517   2638   2639      1
  1518   2638   2640      1
  1519   2638   2642      1
  1520   2639   2641      1
  1521   2643   2644      1
  1522   2644   2645      1
  1523   2644   2647      1
  1524   2646   2649      1
  1525   2647   2648      1
  1526   2647   2650      1
  1527   2649   2652      1
  1528   2650   2653      1
  1529   2652   2653      1
  1530   2652   2655      1
  1531   2655   2659      1
  1532   2663   2664     du
  1533   2664   2665     du
  1534   2665   2666     du
  1535   2666   2663     du
  1536   2667   2668     du
  1537   2668   2669     du
  1538   2669   2670     du
  1539   2670   2667     du
  1540   2666   2670     du
  1541   2667   2663     du
  1542   2665   2669     du
  1543   2668   2664     du
