@<TRIPOS>MOLECULE
LAMMPS data file via write_data, version 29 Oct 2020, timestep = 100 > lmp2SYBYLmol2 v3.0 / 24 May 2023 w/remove_PBC_bonds=True
  2636 655    0    0    0
SMALL
NO_CHARGES
****
Energy = 0

@<TRIPOS>ATOM
      1 C          -14.7373   -12.9429   -10.8664 C      23     f23     0.0042
      2 C          -13.6629   -12.6750   -13.9881 C       0      f0     0.0025
      3 C          -13.2865   -11.2656   -13.6618 C       0      f0    -0.0198
      4 C          -13.1558   -10.3593   -14.6616 C       0      f0     0.0041
      5 C          -13.1314   -13.9463   -13.5279 C       0      f0     0.0006
      6 H          -13.0073   -10.9940   -12.6187 H       0      f0     0.0223
      7 C           -9.0988   -11.5729   -10.9458 C       0      f0    -0.0207
      8 H           -8.6852   -12.7848   -12.5219 H       0      f0     0.0254
      9 H           -8.0383   -11.2349   -11.3360 H       0      f0     0.0211
     10 C           -8.2697   -10.9370   -13.6979 C       0      f0    -0.0007
     11 C           -7.9140   -12.1458   -12.8994 C       0      f0    -0.0226
     12 C           -6.6469   -12.4676   -13.2660 C       0      f0     0.0018
     13 C           -5.4750   -12.5803   -13.8559 C       0      f0     0.0325
     14 C           -5.2869   -11.4844   -14.8556 C       0      f0    -0.0068
     15 C           -4.8158   -13.7179   -14.0054 C       0      f0    -0.0253
     16 H           -4.9007   -10.4484   -14.7883 H       0      f0     0.0300
     17 C           -3.6471   -13.4190   -13.3612 C       0      f0     0.0544
     18 H           -2.7276   -13.2874   -13.8411 H       0      f0     0.0385
     19 C           -3.2099   -14.2164   -12.3661 C       0      f0    -0.0197
     20 O           -2.8636   -11.2142   -12.5907 O      27     f27    -0.4848
     21 C           -1.9091    14.2319   -11.8033 C       0      f0     0.0041
     22 C           -1.3601   -11.8677   -12.4178 C      27     f27     0.1913
     23 C           -1.0133   -13.2359   -12.4076 C       0      f0    -0.0663
     24 C           -0.4506   -10.5920   -12.3374 C      27     f27    -0.0395
     25 H           -0.0673   -10.4317   -14.7242 H       0      f0     0.0191
     26 H           -0.0206   -13.3873   -12.4286 H       0      f0     0.0201
     27 H            0.4551   -10.6851   -11.7046 H       0      f0     0.0151
     28 H            1.4907   -14.1277   -10.7816 H       0      f0     0.0279
     29 H            1.3682   -11.0536   -13.8557 H       0      f0     0.0162
     30 C            1.9051   -11.8074   -14.0289 C       0      f0    -0.0248
     31 C            2.6098   -12.1973   -11.4337 C       0      f0     0.0000
     32 C            2.7863   -12.3778   -13.0190 C       0      f0     0.0041
     33 C            3.8115   -13.4177   -13.0919 C       0      f0    -0.0284
     34 C            3.9006   -11.6611   -10.8950 C       0      f0     0.0127
     35 C            4.7126   -13.5930   -14.2422 C       4      f4     0.0018
     36 C            5.2533   -11.3779   -10.7001 C       0      f0     0.0004
     37 C            6.6656   -12.1138   -14.5022 C       4      f4     0.0012
     38 C            6.6502   -14.2218   -13.4410 C       4      f4     0.0102
     39 C            7.2673   -12.9658   -13.6100 C       4      f4     0.0032
     40 C            7.9785   -10.4220   -14.2866 C       0      f0     0.0148
     41 C            8.0908    14.1928   -11.5335 C       4      f4     0.0086
     42 C            8.7331   -12.7941   -13.3877 C       4      f4    -0.0220
     43 H            9.4410   -12.4143   -14.1236 H       0      f0     0.0261
     44 C            9.1876   -13.5993   -12.4052 C       4      f4     0.0009
     45 C           10.5954   -13.9146   -11.9151 C       4      f4    -0.0004
     46 C           11.3447   -10.6653   -13.4707 C       0      f0     0.0459
     47 C           11.3056   -12.6873   -14.8498 C       0      f0     0.0127
     48 C           11.9069   -12.0748   -13.6439 C       0      f0    -0.0070
     49 C           13.1786   -11.3035   -11.0005 C       0      f0    -0.0004
     50 C           13.2569   -12.6496   -11.5740 C       0      f0    -0.0025
     51 C           13.1991   -12.7947   -12.9722 C       0      f0     0.0046
     52 C           13.6288   -13.9830   -11.3330 C       0      f0    -0.0010
     53 C           14.1337   -12.8744   -14.0954 C       0      f0     0.0023
     54 C           14.9659   -13.9951   -11.5798 C       0      f0    -0.0024
     55 C          -15.0365   -12.6776   -14.7904 C       0      f0    -0.0002
     56 C           15.0483    -7.7754   -14.4235 C       0      f0    -0.0238
     57 H          -13.7150    -8.9661   -12.2069 H       0      f0     0.0243
     58 C          -13.2702    -7.5324   -11.0846 C       0      f0     0.0045
     59 C          -13.0707    -8.2568   -12.0530 C       0      f0    -0.0258
     60 H          -12.5510    -6.8173   -14.0987 H       0      f0     0.0184
     61 C          -11.9377    -8.0820   -12.9329 C       0      f0    -0.0085
     62 C          -11.5648    -6.6461   -14.7321 C       0      f0    -0.0173
     63 C          -10.9492    -7.7352   -13.9484 C       0      f0    -0.0008
     64 H          -10.3571    -9.4672    14.7951 H       0      f0     0.0182
     65 H           -9.8595    -8.6162   -12.4713 H       0      f0     0.0251
     66 C           -9.8769    -8.7339   -14.5641 C       0      f0    -0.0206
     67 C           -8.9924    -8.0279   -11.9722 C       0      f0    -0.0181
     68 C           -8.9680    -6.4455   -12.0816 C       0      f0    -0.0039
     69 C           -8.6475    -9.5391   -13.9819 C       0      f0     0.0006
     70 C           -8.0745    -9.0468   -12.6664 C       0      f0    -0.0250
     71 C           -7.2683    -7.0881   -14.6729 C       0      f0     0.0026
     72 H           -7.2742    -9.5891   -12.2576 H       0      f0     0.0203
     73 H           -7.0058    -7.6611   -11.9565 H       0      f0     0.0239
     74 C           -6.8991    -6.2871   -13.6302 C       0      f0    -0.0033
     75 H           -6.0135    -9.0508   -14.8757 H       0      f0     0.0217
     76 C           -6.5829    -7.8491   -10.9911 C       0      f0    -0.0226
     77 C           -5.6611    -6.6634   -12.8318 C       0      f0    -0.0052
     78 H           -5.1046    -9.1656   -12.7971 H       0      f0     0.0468
     79 H           -4.0222    -5.9271   -14.2905 H       0      f0     0.0475
     80 C           -4.3713    -6.4366   -13.4623 C       0      f0    -0.0438
     81 C           -4.0652    -9.0025   -13.1292 C      27     f27    -0.1130
     82 C           -3.6035    -7.6451   -13.4457 C      27     f27     0.2202
     83 C           -2.9848    -9.7698   -13.1785 C      27     f27     0.2112
     84 O           -2.1169    -7.3826   -13.6438 O      27     f27    -0.4831
     85 C           -1.7233    -8.8808   -13.2597 C      27     f27     0.1577
     86 C           -0.5519    -9.2597   -12.8937 C      27     f27    -0.0220
     87 H            0.2577    -7.6953   -12.5126 H       0      f0     0.0525
     88 C            0.9991    -7.9114   -14.5567 C       0      f0     0.0346
     89 C            0.8219    -8.3726   -13.0161 C       0      f0    -0.0345
     90 H            1.4271    -8.8085   -12.0798 H       0      f0     0.0107
     91 C            2.3299    -8.4256   -14.6124 C       0      f0    -0.0237
     92 H            3.2692    -8.0868   -14.4010 H       0      f0     0.0931
     93 H            4.5395    -8.7680   -10.7630 H       0      f0     0.0144
     94 C            6.7736    -6.7685   -11.8469 C       0      f0    -0.0478
     95 C            7.2061    -6.5136   -14.0614 C       0      f0     0.2139
     96 C            7.4487    -7.2587   -12.8216 C       0      f0    -0.0215
     97 C            8.2613    -6.0595   -14.5189 C       0      f0    -0.0517
     98 C            8.0652    -9.6046   -13.4162 C       0      f0     0.0015
     99 C            8.3017    -8.4702   -12.6277 C       0      f0    -0.0166
    100 H            8.4450    -9.0623   -11.6620 H       0      f0     0.0179
    101 H            9.8019    -6.8913   -11.7291 H       0      f0     0.0297
    102 H           10.8406    -8.8838   -12.5251 H       0      f0     0.0264
    103 C           11.1591   -10.0195   -12.3628 C       0      f0    -0.0302
    104 C           12.0308   -10.2335   -11.0945 C       0      f0     0.0040
    105 C           12.9216    -6.8295   -10.9571 C       0      f0    -0.0057
    106 C           13.5869    -6.8566   -12.0000 C       0      f0     0.0004
    107 C           14.6276    -7.8244   -11.7716 C       0      f0    -0.0040
    108 C           15.0173    -7.8584   -13.1174 C       0      f0     0.0087
    109 C          -15.1079    -3.2281   -11.5007 C       0      f0    -0.0202
    110 C          -14.1212    -4.2221   -13.7560 C       2      f2     0.0090
    111 H          -14.1861    -3.5919   -10.9489 H       0      f0     0.0262
    112 C          -13.8518    -2.9347   -14.3537 C       2      f2     0.0251
    113 C          -12.7852    -4.3454   -13.1624 C       2      f2    -0.0162
    114 H          -12.5883    -5.2900   -12.7535 H       0      f0     0.0220
    115 C          -12.1872    -2.9644   -12.6994 C       2      f2     0.0215
    116 C          -11.0144    -2.4317   -11.9195 C       2      f2     0.0141
    117 C          -10.0762    -5.8318   -11.6083 C       0      f0    -0.0025
    118 C          -10.1623    -3.2403   -11.0374 C       2      f2    -0.0000
    119 C           -9.6425    -4.4262   -11.8036 C       0      f0    -0.0029
    120 C           -8.3254    -4.3678   -12.5095 C       0      f0     0.0005
    121 C           -8.0164    -5.6666   -12.8849 C       0      f0    -0.0032
    122 C           -7.5925    -2.3975   -14.9926 C      28     f28     0.0182
    123 H           -7.3014    -2.3809   -12.3437 H       0      f0     0.0196
    124 C           -7.4917    -3.1939   -13.0691 C       0      f0    -0.0154
    125 C           -6.0330    -3.6070   -12.8140 C       0      f0    -0.0051
    126 C           -5.9582    -4.2926   -11.4884 C      24     f24    -0.0039
    127 C           -5.7430    -5.8732   -11.6434 C      24     f24     0.0026
    128 C           -4.9525    -2.8706   -13.6081 C       0      f0    -0.0025
    129 C           -3.4358    -3.0061   -13.4414 C       0      f0    -0.0143
    130 H           -2.9008    -3.7759   -13.9757 H       0      f0     0.0294
    131 C           -2.3272    -2.3995   -12.9686 C       0      f0    -0.0009
    132 H           -1.0189    -4.6316   -12.0603 H       0      f0     0.0344
    133 C           -0.3741    -3.9290   -12.7662 C       0      f0    -0.0200
    134 C           -0.2710    -3.8602   -14.0856 C       0      f0     0.0198
    135 C            0.8433    -3.4692   -12.1332 C       0      f0     0.0020
    136 C            1.8134    -3.0541   -11.6606 C       0      f0    -0.0054
    137 C            3.0251    -2.0532   -11.8406 C       0      f0     0.0019
    138 C            5.0759    -5.2641   -11.2806 C       0      f0    -0.0457
    139 C            5.8506    -5.7864   -12.3448 C       0      f0     0.2392
    140 O            6.0544    -5.5044   -13.8102 O       0      f0    -0.4654
    141 C            6.3328    -2.1769   -14.0458 C       0      f0     0.0432
    142 C            7.3667    -2.4521   -14.1691 C       0      f0    -0.0090
    143 H            8.3942    -2.5255   -14.1817 H       0      f0     0.0222
    144 H            8.8472    -5.3480   -12.3026 H       0      f0     0.0287
    145 C            9.7198    -5.8533   -11.7646 C       0      f0    -0.0342
    146 C            9.9784    -4.2670   -14.9789 C       0      f0    -0.0071
    147 C           10.0783    -4.0256   -13.4788 C       0      f0    -0.0268
    148 H           10.4167    -3.0892   -13.2359 H       0      f0     0.0146
    149 C           10.5861    -5.1182   -12.7992 C       0      f0     0.0066
    150 C           11.6948    -5.4313   -12.1089 C       0      f0    -0.0147
    151 C           11.7830    -5.9177   -10.9278 C       0      f0     0.0058
    152 H           12.4132    -3.2060   -14.3628 H       0      f0     0.0179
    153 C           12.9828    -5.7607   -12.7760 C       0      f0     0.0073
    154 C           13.7728    -4.5343   -13.0709 C       0      f0    -0.0019
    155 H           14.5130    -3.4672   -10.5967 H       0      f0     0.0136
    156 H           14.2670    -2.6165    14.8092 H       0      f0     0.0261
    157 C           14.9634    -3.7709   -12.8761 C       0      f0    -0.0063
    158 C          -15.1081     1.0297   -11.3785 C      29     f29    -0.0317
    159 C          -14.3554    -0.3093   -11.2702 C      29     f29     0.2133
    160 H          -13.3889     1.0238   -14.3329 H       0      f0     0.0361
    161 C          -13.2661    -0.0096   -14.8064 C       0      f0    -0.0268
    162 C          -13.0258    -2.1776   -13.4832 C       2      f2     0.0135
    163 C          -12.3801    -0.8344   -13.9922 C       2      f2     0.0648
    164 C          -11.1632    -0.3369   -13.4960 C       2      f2     0.0435
    165 C          -10.7938    -0.9956   -12.2049 C       2      f2     0.0583
    166 C          -10.0776     0.1760   -14.4191 C       0      f0     0.0433
    167 C           -9.8803     1.2669   -11.1950 C       2      f2     0.2749
    168 C           -9.4868     1.7160   -14.7407 C       0      f0     0.0319
    169 C           -9.9390    -0.2384   -11.4554 C       2      f2    -0.0125
    170 C           -9.2804    -1.0127   -14.6642 C      28     f28    -0.0522
    171 C           -7.9184    -1.2449   -14.1295 C      28     f28     0.0049
    172 H           -7.4751     0.7174   -12.7872 H       0      f0     0.0207
    173 C           -7.2496    -0.2691   -13.3970 C      28     f28    -0.0190
    174 C           -5.8691    -0.6591   -13.7232 C      28     f28    -0.0190
    175 C           -5.4350    -1.7627   -14.5554 C      28     f28     0.0038
    176 H           -5.1399    -0.2392   -12.8118 H       0      f0     0.0105
    177 H           -3.7743     1.7111   -14.3878 H       0      f0     0.0163
    178 H           -2.6998     1.9112   -12.5067 H       0      f0     0.0208
    179 C           -1.8199    -1.4517   -12.3262 C       0      f0    -0.0055
    180 C           -0.7873    -0.6788   -11.7094 C       0      f0    -0.0234
    181 H           -0.0014    -0.9226   -12.5362 H       0      f0     0.0224
    182 C            1.6342     0.8067   -14.4143 C      17     f17     0.0146
    183 C            1.6837     1.1701   -12.0183 C      17     f17    -0.0050
    184 C            2.2106     0.2267   -13.0678 C      17     f17     0.0001
    185 C            2.4978     2.0460   -14.7259 C      17     f17     0.0140
    186 C            2.8549    -0.9021   -12.9423 C       0      f0    -0.0051
    187 C            3.9640    -1.0752   -13.8820 C       0      f0     0.0404
    188 C            4.7004    -0.7740   -10.6336 C       0      f0    -0.0246
    189 H            4.5410    -0.1050   -11.2945 H       0      f0     0.0252
    190 C            5.1969    -1.3661   -14.1158 C       0      f0     0.0151
    191 C            5.9391     1.8823   -14.4294 C       0      f0    -0.0024
    192 C            7.1507    -0.2950   -10.9538 C       0      f0    -0.0034
    193 C            7.6111    -0.2849   -12.0845 C       0      f0    -0.0050
    194 C            7.6477    -0.1472   -13.4042 C       0      f0    -0.0081
    195 C            7.9229     0.1518   -14.5810 C      25     f25    -0.0008
    196 C           10.1086     1.5539   -14.8065 C       0      f0    -0.0044
    197 H           12.4437     0.1323   -12.8561 H       0      f0     0.0121
    198 C           13.0739     1.1513   -13.0747 C       0      f0    -0.0182
    199 H           14.0561    -1.4065   -12.1548 H       0      f0     0.0131
    200 C           14.1419     1.2019   -12.3103 C       0      f0    -0.0047
    201 C           15.0043    -1.5663   -11.4328 C       0      f0    -0.0453
    202 H          -14.6921     2.4542   -12.5764 H       0      f0     0.0260
    203 C          -13.8433     3.2925   -11.7846 C       0      f0     0.0156
    204 C          -13.5555     3.8812   -12.8213 C       0      f0     0.0130
    205 C          -13.3305     4.4039   -14.2246 C      22     f22    -0.0120
    206 C          -11.9571     5.0123   -13.9145 C      22     f22     0.0081
    207 C          -11.6660     2.8539   -14.9563 C      22     f22     0.0341
    208 H          -10.5689     2.8925   -11.4871 H       0      f0     0.2970
    209 C          -11.1166     4.0843   -14.6258 C      22     f22     0.0150
    210 O          -10.7479     2.1661   -11.9765 O       0      f0    -0.6435
    211 C          -10.1537     5.3623   -11.2599 C       0      f0    -0.0003
    212 C           -8.7978     4.9614   -11.5990 C       0      f0    -0.0004
    213 C           -8.2943     2.2905   -14.5044 C       0      f0    -0.0005
    214 C           -8.2264     3.6429   -10.9311 C       0      f0    -0.0146
    215 C           -7.9096     5.7800   -11.9786 C       0      f0    -0.0099
    216 C           -7.3358     2.9849   -14.4996 C       0      f0     0.0072
    217 C           -7.3246     3.0029   -11.8036 C       0      f0     0.0018
    218 C           -6.5351     2.8682   -13.1364 C       0      f0    -0.0220
    219 H           -6.4516     5.1263    14.9675 H       0      f0     0.0252
    220 H           -5.5179     2.3420   -13.2122 H       0      f0     0.0130
    221 H           -5.3394     4.1998   -10.1411 H       0      f0     0.0207
    222 H           -3.4472     3.1411   -10.9742 H       0      f0     0.0286
    223 H           -3.5477     3.3453   -12.8533 H       0      f0     0.0247
    224 C           -3.0451     2.8776   -12.0175 C       0      f0    -0.0500
    225 H           -2.9465     4.2496   -14.0453 H       0      f0     0.0273
    226 C           -1.6938     3.0105   -11.1431 C       0      f0     0.0172
    227 C           -0.8506     3.1090   -12.0172 C       0      f0     0.0015
    228 C            0.2762     3.4835   -12.7817 C       0      f0     0.0063
    229 C            1.5083     5.5018   -13.5832 C       0      f0     0.0002
    230 C            1.5488     4.3802   -12.6661 C       0      f0    -0.0138
    231 H            1.8507     4.9263   -11.6944 H       0      f0     0.0199
    232 C            2.6952     2.2605   -12.2541 C      17     f17     0.0001
    233 C            3.3212     2.3448   -13.6411 C      17     f17    -0.0002
    234 C            3.6871     2.3648   -11.4493 C      17     f17    -0.0026
    235 C            4.8669     2.4665   -13.8143 C      17     f17     0.0031
    236 C            4.8082     4.4760   -12.4431 C       0      f0     0.0013
    237 C            5.0026     3.1672   -12.2497 C      17     f17    -0.0180
    238 C            4.9581     5.8545   -12.5786 C       0      f0    -0.0067
    239 H            5.9737     2.8322   -11.7587 H       0      f0     0.0201
    240 H            7.6478     3.0496   -12.8162 H       0      f0     0.0210
    241 H            7.2030     5.6005   -13.3254 H       0      f0     0.0272
    242 C            7.8340     4.7287   -13.4906 C       0      f0    -0.0234
    243 C            8.0254     3.8684   -10.6931 C      10     f10     0.0028
    244 C            8.2195     3.8077   -12.3347 C       0      f0    -0.0315
    245 C            8.8918     4.9816   -14.4873 C       0      f0     0.0008
    246 H            9.1454     3.7600   -12.9007 H       0      f0     0.0264
    247 C            9.8173     5.9764    14.9267 C       0      f0    -0.0177
    248 C           10.6839     6.0638   -11.6566 C       0      f0    -0.0194
    249 C           10.8342     3.8923   -11.0960 C      10     f10    -0.0068
    250 C           11.1109     5.1377   -14.6720 C       0      f0    -0.0009
    251 C           11.1087     2.4647   -14.4109 C       0      f0    -0.0032
    252 C           10.8748     3.8174   -14.5687 C       0      f0    -0.0008
    253 H           11.1546     5.8344   -12.6421 H       0      f0     0.0236
    254 C           12.4483     5.9149   -14.8163 C       0      f0    -0.0052
    255 C           12.5011     2.3890   -13.6243 C       0      f0     0.0028
    256 C           13.3007     4.1930   -11.3454 C       0      f0    -0.0030
    257 C           13.2738     3.6159   -13.6972 C       0      f0    -0.0040
    258 C           13.6595     4.6117   -12.6396 C       0      f0    -0.0048
    259 C          -15.0349     6.8166   -10.9745 C       0      f0    -0.0055
    260 C          -15.0849     8.9108   -13.6131 C       0      f0     0.0036
    261 C          -14.6876     8.7565    14.9473 C       0      f0    -0.0111
    262 C          -13.8663     9.2427   -13.0992 C       0      f0    -0.0082
    263 C          -12.4252     9.2898   -12.9312 C       0      f0     0.0019
    264 C          -12.0105     8.2686   -11.8641 C      14     f14    -0.0048
    265 C          -11.5615     6.2195   -13.3819 C      22     f22     0.0015
    266 C          -11.1834     7.0989   -14.6343 C      22     f22    -0.0015
    267 C          -10.7079     7.9015   -11.5423 C      14     f14    -0.0086
    268 C          -10.4036     6.4296   -12.3627 C       0      f0    -0.0146
    269 H          -10.0103     8.5373   -12.1743 H       0      f0     0.0223
    270 C           -9.9845     8.0526   -14.4114 C       0      f0     0.0073
    271 H           -9.4774     6.3964   -13.0663 H       0      f0     0.0239
    272 C           -9.0161     8.9444   -14.1352 C       0      f0     0.0049
    273 C           -8.7085     9.6308   -11.2776 C       0      f0    -0.0042
    274 H           -8.5472     9.4978   -14.8247 H       0      f0     0.0574
    275 C           -8.3435     9.1099   -12.7280 C       0      f0    -0.0074
    276 C           -7.0838     8.3089   -12.3485 C       0      f0     0.0130
    277 C           -6.8644     6.7224   -12.3235 C       0      f0     0.0073
    278 C           -6.0933     9.5367   -11.7310 C       0      f0     0.0064
    279 C           -5.9629     6.7587   -11.2562 C       0      f0    -0.0024
    280 C           -4.8961     9.3481   -11.0018 C       0      f0    -0.0336
    281 H           -4.9309     8.2313   -11.2155 H       0      f0     0.0329
    282 C           -3.6109     9.3122   -14.0045 C       0      f0     0.0002
    283 H           -3.2694     8.1313   -12.2877 H       0      f0     0.0730
    284 C           -3.0268     8.4917   -13.2828 C       0      f0    -0.0164
    285 O           -2.0339     6.7912   -10.8947 O       0      f0    -0.4669
    286 C           -1.9996     7.4458   -14.0293 C       0      f0     0.0181
    287 C           -0.7959     6.9438   -13.5210 C       0      f0     0.0404
    288 H           -0.6314    10.1137   -13.3553 H       0      f0     0.0276
    289 C            0.6401     6.7640   -13.6025 C       0      f0    -0.0232
    290 C            0.6269     9.0906   -10.8945 C       0      f0     0.0012
    291 H            0.8656     7.7108   -14.1436 H       0      f0     0.0214
    292 C            1.0347     7.6423   -10.9172 C       0      f0    -0.0200
    293 C            2.7568     9.6485   -14.2440 C       0      f0    -0.0216
    294 H            2.9133     7.3195   -12.0078 H       0      f0     0.0202
    295 C            3.0430     9.9295   -12.9739 C       0      f0     0.0028
    296 H            3.5894     9.0633   -14.7670 H       0      f0     0.0169
    297 C            3.6939     8.0472   -11.4953 C       0      f0    -0.0177
    298 C            4.3640     9.0125   -12.5946 C       0      f0    -0.0004
    299 C            4.9646     6.4772   -14.0616 C       0      f0    -0.0060
    300 C            5.0505     7.6738   -10.8841 C      15     f15     0.0033
    301 C            5.5770     9.6057   -13.3507 C       0      f0    -0.0164
    302 C            5.6228     6.5420   -11.3328 C      15     f15    -0.0045
    303 C            5.7832     8.6429   -14.4492 C       0      f0    -0.0034
    304 C            6.2498     7.1814   -14.3961 C       0      f0    -0.0028
    305 C            8.2734     9.2537   -11.5346 C      15     f15     0.0026
    306 C            9.2058     8.2571   -11.9683 C       0      f0     0.0047
    307 H           10.0826     6.9614   -14.6872 H       0      f0     0.0233
    308 C           10.0699     7.2908   -11.6323 C       0      f0     0.0004
    309 H           10.8640     8.4214   -14.0170 H       0      f0     0.0492
    310 C           11.9499     8.2205   -13.5801 C       0      f0    -0.0193
    311 C           12.6104     7.0045   -13.8060 C       0      f0    -0.0027
    312 C           12.7914     9.0386   -12.6110 C       0      f0     0.0096
    313 C           13.5408     6.1956   -12.8037 C       0      f0    -0.0040
    314 C           14.3410     8.7120   -12.4484 C       0      f0    -0.0150
    315 C           14.3094     7.0991   -12.1640 C       0      f0    -0.0004
    316 H           14.9735     9.4122   -11.5515 H       0      f0     0.0181
    317 C          -15.0980    13.2038   -11.7353 C       0      f0    -0.0004
    318 H          -14.0436    11.5531   -11.2162 H       0      f0     0.0176
    319 C          -14.6096    12.0958   -12.0866 C       0      f0    -0.0171
    320 C          -14.0147    11.5660   -14.4619 C       0      f0     0.0007
    321 C          -13.6008    12.2218   -13.3885 C       0      f0    -0.0016
    322 H          -12.8972    14.0794   -11.0173 H       0      f0     0.0228
    323 C          -12.6506    13.3544   -13.1362 C       0      f0    -0.0050
    324 H          -11.5520    11.1196   -13.9547 H       0      f0     0.0243
    325 C          -11.4727    10.5584   -13.0889 C       0      f0    -0.0252
    326 C          -11.1321    13.4668   -13.0381 C       0      f0    -0.0030
    327 C          -10.5528    13.4820   -14.4078 C       0      f0     0.0003
    328 C          -10.6895    10.7145   -12.1044 C       0      f0     0.0009
    329 C           -9.8289    13.2335   -10.9771 C       0      f0    -0.0060
    330 C           -9.8046    13.6799   -12.2599 C       0      f0    -0.0039
    331 C           -9.7798    10.7372   -11.2584 C       0      f0     0.0013
    332 C           -9.0157    13.4636   -14.4165 C       0      f0    -0.0171
    333 C           -8.6525    13.7366   -13.0101 C       0      f0    -0.0046
    334 H           -8.5741    12.3907   -14.4492 H       0      f0     0.0174
    335 C           -7.4463    13.4928   -12.1615 C       0      f0    -0.0041
    336 C           -6.9074    11.9795   -11.9198 C       0      f0    -0.0011
    337 C           -6.8530    13.9598   -11.1412 C       0      f0    -0.0001
    338 C           -6.5608    10.9198   -11.9673 C       0      f0     0.0004
    339 C           -5.2904    10.9819   -14.6258 C       0      f0    -0.0157
    340 C           -5.2356    12.3047   -14.2517 C       0      f0    -0.0126
    341 C           -5.2711    13.5053   -13.9386 C       0      f0    -0.0021
    342 H           -3.7132    13.4491   -11.4948 H       0      f0     0.0165
    343 C           -4.1175    10.1555   -14.8744 C       0      f0     0.0011
    344 H           -1.6575    13.3705   -11.2757 H       0      f0     0.0077
    345 H           -1.5256    11.4667   -13.8503 H       0      f0     0.0200
    346 C           -1.2197    10.5192   -11.2150 C       0      f0    -0.0240
    347 C           -0.7722    10.8634   -14.1587 C       0      f0    -0.0400
    348 C           -0.0426    11.0066   -11.7468 C       0      f0    -0.0251
    349 H           -0.0495    11.9509   -12.2420 H       0      f0     0.0190
    350 C            0.1649    11.8254   -14.8978 C       0      f0     0.0019
    351 C            1.1994    10.3025   -11.6458 C       0      f0    -0.0012
    352 H            1.5398    13.6196   -14.1560 H       0      f0     0.0249
    353 C            1.5579    11.7849   -14.8586 C       0      f0     0.0012
    354 C            2.3643    13.0279   -14.4338 C       0      f0    -0.0308
    355 C            2.3969    10.5095   -12.1655 C       0      f0     0.0039
    356 C            2.7329    12.0414   -11.8543 C       0      f0    -0.0427
    357 H            3.1254    13.0669    14.7786 H       0      f0     0.0198
    358 C            2.8830    13.0016   -12.8377 C       0      f0    -0.0351
    359 C            3.6139    13.9518   -12.1038 C       0      f0     0.1781
    360 H            5.8705    10.6403   -13.4959 H       0      f0     0.0224
    361 C            5.4939    13.6729   -13.9892 C       4      f4    -0.0031
    362 H            6.8803    12.4728   -12.3090 H       0      f0     0.0262
    363 C            7.1221    13.4737   -12.4242 C       4      f4    -0.0082
    364 C            8.1205    10.7113   -11.3904 C      15     f15    -0.0050
    365 H            8.6460    11.0838   -13.6349 H       0      f0     0.0545
    366 C            9.3676    11.3021   -11.9497 C       0      f0     0.0042
    367 C            9.1039    12.0252   -13.2835 C       0      f0    -0.0115
    368 C           10.1986    12.8636   -13.7806 C       0      f0     0.0245
    369 C           10.6837    11.4619   -11.2455 C       4      f4    -0.0021
    370 C           11.2207    13.6034   -12.8778 C       4      f4    -0.0025
    371 C           11.8537    11.4951   -12.2149 C       4      f4     0.0083
    372 C           12.3780    12.7752   -12.3406 C       4      f4    -0.0001
    373 C           12.5797    10.3878   -12.2809 C       0      f0    -0.0011
    374 C           12.7763    13.4784   -11.1114 C       4      f4    -0.0030
    375 C          -15.0966   -11.6668   -10.2404 C      23     f23    -0.0040
    376 H           15.0920   -13.0158    -6.9788 H       0      f0     0.0207
    377 C          -14.7144   -13.8396    -6.9794 C       0      f0    -0.0262
    378 C          -13.8866   -10.7944   -10.0175 C      23     f23     0.0008
    379 C          -13.2734   -13.3297   -10.9065 C      23     f23    -0.0155
    380 C          -12.6002   -11.4285    -9.8422 C      23     f23     0.0015
    381 C          -12.5607   -12.8556    -9.8157 C      23     f23     0.0028
    382 C          -11.4560   -10.5639   -10.4570 C      23     f23    -0.0036
    383 C          -11.3581   -13.9451    -9.3048 C       0      f0    -0.0224
    384 C          -10.2875   -10.9761   -10.7474 C       0      f0     0.0032
    385 C           -8.3235   -11.1751    -8.3233 C       0      f0    -0.0155
    386 H           -7.6411   -11.0777    -7.4784 H       0      f0     0.0190
    387 C           -8.0769   -11.6395    -9.6240 C       0      f0    -0.0029
    388 H           -7.3582   -12.4510    -6.6184 H       0      f0     0.0170
    389 C           -6.8799   -12.5739    -9.7585 C       0      f0     0.0041
    390 C           -6.1450   -11.8684    -8.5049 C       0      f0    -0.0104
    391 C           -6.2538   -13.6950   -10.1936 C       0      f0    -0.0175
    392 C           -6.1793   -10.4449    -8.5772 C       0      f0    -0.0029
    393 C           -5.4955   -12.1876    -7.2439 C       0      f0     0.0135
    394 H           -5.2715   -14.1324   -10.0264 H       0      f0     0.0264
    395 C           -4.9485   -13.4379    -6.7443 C       0      f0    -0.0036
    396 H           -2.8313   -10.5236   -10.4415 H       0      f0     0.0733
    397 C           -1.9535   -10.4252    -8.7170 C       0      f0    -0.0005
    398 C           -1.3726   -10.7726    -7.3743 C       0      f0    -0.0104
    399 H           -0.9549   -13.6662    -7.5521 H       0      f0     0.0182
    400 C            0.0483   -11.5389    -7.1113 C       0      f0    -0.0064
    401 C            0.7296   -11.9930    -8.1688 C       0      f0    -0.0072
    402 C            1.3606   -12.5092    -9.2641 C       0      f0    -0.0040
    403 C            1.7667   -13.1778   -10.4338 C       0      f0     0.0151
    404 H            3.0480   -10.9630    -7.7146 H       0      f0     0.0179
    405 C            3.2018   -11.1662    -6.6723 C       0      f0    -0.0222
    406 H            4.7066   -12.6134    -9.3179 H       0      f0     0.0639
    407 C            5.6596   -12.1944    -9.6209 C       0      f0    -0.0039
    408 C            5.6687   -11.0198    -6.7225 C       0      f0    -0.0026
    409 H            5.6927   -13.0153    -7.0087 H       0      f0     0.0243
    410 C            6.4107   -12.1451    -7.3015 C       0      f0    -0.0147
    411 C            6.8511   -12.2716    -8.8724 C       0      f0     0.0052
    412 C            7.5443   -10.2975    -9.8019 C       0      f0    -0.0006
    413 C            7.9732   -12.4843    -6.8966 C       0      f0    -0.0026
    414 C            7.9561   -11.6962    -9.3948 C       0      f0     0.0020
    415 C            9.2372   -11.6596    -6.8803 C      30     f30     0.0002
    416 C            9.3610   -12.2016    -9.4195 C       0      f0     0.0003
    417 C            9.6421   -13.5028    -9.8745 C       4      f4    -0.0073
    418 H            9.8961    14.1871    -7.3973 H       0      f0     0.0145
    419 C           10.1394   -11.6507    -8.0479 C      30     f30    -0.0166
    420 C           10.9434   -13.4508   -10.6334 C       4      f4    -0.0002
    421 H           10.7956   -12.3259    -7.6888 H       0      f0     0.0168
    422 C           12.8555   -10.9184    -7.5274 C       0      f0     0.0037
    423 C           13.1309   -11.8642    -8.6169 C       0      f0    -0.0199
    424 H           13.3158   -12.7835    -7.8543 H       0      f0     0.0149
    425 C           13.8521   -11.2460    -9.7171 C       0      f0     0.0007
    426 C           15.1322    -8.5041    -9.5084 C       0      f0     0.0021
    427 H          -14.4921   -10.1537    -8.0260 H       0      f0     0.0177
    428 C          -14.6409    -7.9981   -10.7238 C       0      f0    -0.0068
    429 C          -14.0351    -9.7131    -9.0231 C      23     f23    -0.0160
    430 C          -13.4306    -6.1917    -7.7957 C       0      f0    -0.0057
    431 H          -12.6289    -8.8462    -7.6088 H       0      f0     0.0185
    432 C          -12.5278    -9.3759    -8.6920 C      23     f23    -0.0125
    433 C          -12.3909    -6.6108   -10.4585 C       0      f0    -0.0065
    434 C          -12.4107    -6.5427    -6.8654 C       1      f1    -0.0021
    435 C          -11.3649    -9.5309    -9.1971 C      23     f23     0.0044
    436 C          -10.8300    -6.4110   -10.3668 C       0      f0    -0.0077
    437 C          -10.9941    -6.7845    -7.3614 C       1      f1     0.0003
    438 C          -10.4813    -8.1047    -7.1729 C       1      f1     0.0099
    439 C          -10.3038    -7.3898    -9.8306 C       0      f0     0.0026
    440 C          -10.1876    -9.0150    -8.3400 C       1      f1     0.0027
    441 C           -9.2146    -8.0391    -9.2583 C       0      f0    -0.0191
    442 C           -9.3844   -10.3474    -7.8938 C       1      f1    -0.0052
    443 H           -8.1700    -7.7156    -9.2018 H       0      f0     0.0198
    444 H           -7.5292    -9.6457   -10.6652 H       0      f0     0.0186
    445 H           -7.2622    -7.4750    -7.9839 H       0      f0     0.0298
    446 C           -6.8832    -6.3748    -8.1699 C      24     f24    -0.0137
    447 C           -6.8166    -8.9590   -10.2794 C       0      f0    -0.0122
    448 C           -6.2078    -9.1320    -8.8456 C       0      f0    -0.0186
    449 C           -5.8965    -6.6456   -10.4753 C      24     f24     0.0005
    450 H           -5.4074    -8.6397    -8.2891 H       0      f0     0.0255
    451 C           -2.4612    -9.8001    -9.7875 C       0      f0    -0.0268
    452 C           -2.4158    -8.3816   -10.1859 C       0      f0     0.0152
    453 C           -2.1845    -6.9754   -10.2259 C       0      f0     0.0124
    454 C           -0.8107    -9.6381    -7.1049 C       0      f0     0.0017
    455 H            2.4377    -7.1895    -7.8025 H       0      f0     0.0085
    456 C            2.3567    -6.4386    -7.0126 C       0      f0    -0.0202
    457 H            4.6958    -7.8354    -6.5292 H       0      f0     0.0198
    458 C            5.5716    -8.9299   -10.5906 C       0      f0    -0.0192
    459 H            4.9244    -6.1156    -8.6298 H       0      f0     0.0222
    460 C            5.5898    -9.6345    -7.0115 C       0      f0    -0.0034
    461 C            5.9430    -8.7524    -8.0303 C       0      f0     0.0052
    462 C            6.0463    -8.1442    -9.3282 C       0      f0    -0.0060
    463 C            6.1850   -10.1019   -10.3744 C       0      f0     0.0016
    464 C            6.7390    -6.8892    -9.6070 C       0      f0     0.0356
    465 C            7.5636    -6.3819   -10.7854 C       0      f0     0.0133
    466 H            9.1035    -8.5189   -10.3418 H       0      f0     0.0299
    467 C            8.6381    -9.2664    -9.7855 C       0      f0     0.0044
    468 O            9.3486    -6.7830    -8.2327 O       0      f0    -0.4773
    469 C            9.6716    -9.2368    -8.7042 C       0      f0    -0.0563
    470 C           10.0174    -7.8790    -8.0955 C       0      f0     0.2961
    471 C           10.5579   -10.2274    -8.2606 C      30     f30     0.0064
    472 H           10.9031    -7.6948    -7.3905 H       0      f0    -0.0056
    473 C           11.7000    -9.8691    -7.1528 C      30     f30    -0.0301
    474 H           12.0480    -8.9285    -7.3023 H       0      f0     0.0167
    475 C           12.4796    -9.1534   -10.3784 C       0      f0    -0.0055
    476 C           12.9777    -7.9921    -9.9898 C       0      f0     0.0060
    477 H           13.9710    -7.7662    -7.6926 H       0      f0     0.0191
    478 C           13.9944    -7.9757    -8.8330 C       0      f0    -0.0213
    479 C          -14.7804    -3.8087    -7.8180 C       0      f0    -0.0245
    480 C          -14.5237    -5.2824    -7.1942 C       0      f0     0.0038
    481 C          -13.8413    -3.6189    -8.8064 C       0      f0    -0.0029
    482 H          -14.3435    -2.5180    -8.9142 H       0      f0     0.0338
    483 C          -13.2146    -4.5926    -9.7232 C       0      f0    -0.0195
    484 C          -13.0386    -6.0133    -9.3336 C       0      f0    -0.0009
    485 H          -13.0370    -4.4402   -10.8122 H       0      f0     0.0203
    486 H          -10.5926    -4.6273    -9.1071 H       0      f0     0.0262
    487 C          -10.0663    -5.7123    -7.7474 C       0      f0    -0.0003
    488 C           -9.7461    -4.7126    -8.4257 C       0      f0    -0.0247
    489 C           -9.2368    -2.2736   -10.1766 C       2      f2     0.0060
    490 C           -8.6922    -2.3549    -8.9645 C       2      f2    -0.0029
    491 C           -8.7207    -3.5829    -8.2338 C       2      f2    -0.0038
    492 C           -8.1816    -3.4619    -6.8456 C       2      f2    -0.0160
    493 C           -7.5836    -2.1533    -6.8088 C       2      f2    -0.0220
    494 C           -6.6715    -5.5393    -6.8876 C      24     f24    -0.0253
    495 C           -6.2888    -5.8518    -9.2935 C      24     f24    -0.0059
    496 C           -5.4705    -4.5705    -9.4537 C      24     f24     0.0039
    497 C           -5.8025    -4.7818    -7.3525 C      24     f24     0.0275
    498 C           -5.4235    -3.4743   -10.3256 C      24     f24    -0.0216
    499 H           -5.3236    -2.3546   -10.7195 H       0      f0     0.0126
    500 C           -4.8099    -4.1290    -8.2589 C      24     f24    -0.0065
    501 C           -3.5316    -2.4398    -6.9918 C       0      f0     0.0072
    502 C           -3.4608    -3.6323    -7.7200 C       0      f0     0.0159
    503 C           -2.2944    -5.9761    -9.7395 C       0      f0     0.0121
    504 C           -2.1573    -3.9692    -8.2021 C       0      f0     0.0503
    505 C           -2.1447    -4.5362    -9.5531 C       0      f0    -0.0267
    506 H           -1.7879    -4.1857   -10.4964 H       0      f0     0.0243
    507 C           -1.0634    -3.5880    -7.6052 C       0      f0    -0.0916
    508 C           -0.0653    -2.6133    -8.1843 C       0      f0    -0.0002
    509 H            0.3770    -2.8891    -9.0918 H       0      f0     0.0179
    510 H            2.0950    -5.1445    -8.3354 H       0      f0     0.0180
    511 C            2.2969    -5.1171    -7.3971 C       0      f0    -0.0228
    512 C            3.2635    -4.2196    -6.6968 C       0      f0    -0.0023
    513 C            4.4231    -3.3162    -7.1368 C       0      f0    -0.0071
    514 C            4.2422    -2.9736    -8.4978 C       0      f0    -0.0106
    515 C            4.5952    -3.0855    -9.8355 C       0      f0    -0.0031
    516 H            5.4866    -4.4032    -8.2417 H       0      f0     0.0244
    517 C            4.6814    -4.4797   -10.0392 C       0      f0     0.0120
    518 C            5.5197    -5.3234    -8.9227 C       0      f0    -0.0420
    519 C            7.0955    -4.8608    -8.7973 C       0      f0     0.0370
    520 C            7.5903    -3.6975    -8.2251 C       0      f0     0.0022
    521 C            7.9342    -5.1195   -10.1687 C       0      f0     0.0225
    522 C            8.1037    -2.5595    -7.5511 C       0      f0     0.0053
    523 C            9.2796    -4.8663   -10.6649 C       0      f0     0.0169
    524 C           10.4902    -4.3391    -9.9013 C       0      f0     0.0221
    525 C           10.6390    -3.1329    -9.0008 C       0      f0    -0.0005
    526 C           11.7122    -3.4353    -8.0976 C       0      f0     0.0095
    527 C           11.7877    -4.9995    -9.8633 C       0      f0     0.0094
    528 C           12.0808    -2.2097    -7.4385 C      31     f31    -0.0085
    529 C           12.6659    -4.4870    -8.6958 C       0      f0    -0.0289
    530 H           13.2926    -5.0210    -7.9951 H       0      f0     0.0288
    531 H           13.4326    -4.1073    -9.4487 H       0      f0     0.0150
    532 H           14.9156    -2.8773    -7.4577 H       0      f0     0.0203
    533 C           14.6764    -6.0255    -6.6463 C       0      f0    -0.0116
    534 C          -14.7322     1.3867    -9.9935 C      29     f29    -0.0297
    535 C          -13.4417     0.8033    -9.5518 C      29     f29     0.2115
    536 O          -13.0379    -0.3369   -10.4997 O      29     f29    -0.4696
    537 H          -11.5011    -0.3077    -7.3768 H       0      f0     0.0357
    538 C          -11.0007    -0.5048    -6.5266 C       0      f0    -0.0181
    539 C           -9.0481    -0.7370   -10.3731 C       2      f2    -0.0060
    540 C           -8.9737     1.4295   -10.1914 C       2      f2    -0.0865
    541 C           -8.6638     0.2367    -9.3037 C       2      f2     0.0234
    542 H           -8.0631    -0.1151    -6.8315 H       0      f0     0.0199
    543 C           -7.7743     0.0280    -7.8948 C       2      f2    -0.0373
    544 C           -7.7572    -1.5761    -8.0224 C       2      f2    -0.0026
    545 H           -6.8370     0.7502    -7.8877 H       0      f0     0.0137
    546 H           -3.9262     0.0372    -9.7345 H       0      f0     0.0134
    547 C           -3.3750    -1.1225    -7.6154 C       0      f0    -0.0105
    548 C           -3.1623     0.5088    -9.0939 C       0      f0    -0.0275
    549 C           -3.0231     0.2906    -7.6151 C       0      f0     0.0092
    550 C           -2.7174     1.4467    -6.7376 C       0      f0    -0.0297
    551 C           -1.9565     0.9816    -9.9099 C       0      f0     0.0002
    552 C           -0.8516     0.0841   -10.3895 C       0      f0    -0.0014
    553 H           -0.1423    -1.1855    -6.6101 H       0      f0     0.0415
    554 H           -0.4799     2.4832    -8.8361 H       0      f0     0.0218
    555 C            0.1025    -1.3786    -7.6124 C       0      f0    -0.0215
    556 C            0.5690    -0.0830    -9.9537 C       0      f0    -0.0092
    557 C            0.8747    -0.6326    -8.6537 C       0      f0    -0.0039
    558 C            1.1608     0.9880   -10.7199 C      17     f17    -0.0043
    559 C            1.7827     0.0396    -7.6687 C       0      f0     0.0008
    560 C            3.0546    -0.4479    -8.0801 C       0      f0    -0.0200
    561 H            2.6889    -0.6313    -9.0984 H       0      f0     0.0221
    562 C            3.9886    -2.0535   -10.8715 C       0      f0     0.0007
    563 C            4.0984    -0.9458    -7.4209 C       0      f0     0.0019
    564 C            4.7380    -1.6235    -8.4066 C       0      f0    -0.0040
    565 C            5.3287    -0.8102    -9.3892 C       0      f0     0.0007
    566 H            6.2346     1.4327    -7.7113 H       0      f0     0.0233
    567 C            6.8397    -0.2272    -9.6556 C       0      f0    -0.0069
    568 C            8.0162    -0.5425    -8.8850 C      10     f10    -0.0009
    569 C            8.6081    -1.8320    -8.7394 C      10     f10    -0.0006
    570 C            8.7928     0.7823    -8.9826 C      10     f10     0.0002
    571 C           10.0450    -1.7509    -9.1002 C      10     f10    -0.0037
    572 C           10.1440     0.5969    -9.3093 C      10     f10    -0.0007
    573 C           10.6893     1.7643   -10.0703 C      10     f10    -0.0018
    574 C           10.8285    -0.6008    -9.6209 C      10     f10    -0.0011
    575 C           12.2329    -0.8368    -7.8921 C      31     f31     0.0041
    576 C           12.3080    -0.6200    -9.3860 C       0      f0    -0.0266
    577 C           12.4303     0.1447    -6.9153 C      31     f31     0.0030
    578 C           12.5563     1.5690    -7.1565 C       0      f0    -0.0026
    579 H           12.9975    -0.4970   -10.0355 H       0      f0     0.0207
    580 C          -14.9924     2.3901    -8.9190 C      29     f29    -0.0124
    581 C          -14.8694     3.5542    -9.7386 C      29     f29     0.0018
    582 C          -13.2403     3.2845   -10.2090 C      29     f29     0.0087
    583 H          -12.9437     3.7340    -7.9832 H       0      f0     0.0242
    584 C          -12.7122     2.1406    -9.3673 C      29     f29    -0.0177
    585 H          -12.9325     2.1193    -8.4214 H       0      f0     0.0092
    586 H          -12.9372     4.3704   -10.2481 H       0      f0     0.0258
    587 C          -12.4140     3.8274    -7.0354 C       0      f0    -0.0087
    588 C          -11.0027     4.5331    -7.4702 C       0      f0    -0.0136
    589 C          -11.0122     4.8108    -8.7303 C       0      f0     0.0140
    590 C          -10.6606     5.0119   -10.0484 C       0      f0    -0.0144
    591 H           -8.8307     2.2928    -6.6214 H       0      f0     0.0184
    592 C           -8.5626     2.8037    -9.6812 C       0      f0     0.0122
    593 C           -8.0685     3.3950    -8.5065 C       0      f0    -0.0225
    594 C           -8.1902     3.1323    -7.0960 C       0      f0    -0.0199
    595 H           -7.9848     4.4930    -8.8758 H       0      f0     0.0194
    596 C           -6.4421     5.6860    -8.8064 C       0      f0     0.0092
    597 H           -6.3777     3.4425    -7.0198 H       0      f0     0.0445
    598 C           -5.1169     5.4222    -9.6821 C       0      f0    -0.0219
    599 H           -4.6224     2.2702    -7.1808 H       0      f0     0.0227
    600 H           -4.2695     5.5461    -8.8686 H       0      f0     0.0778
    601 O           -4.2372     5.2178    -6.7429 O       8      f8    -0.5217
    602 C           -3.6779     2.3547    -6.5575 C       0      f0     0.0199
    603 H           -1.7580     4.6774    -9.3536 H       0      f0     0.0398
    604 H           -2.5160     2.6858    -9.1929 H       0      f0     0.0256
    605 C           -1.5243     2.4780    -9.7474 C       0      f0    -0.0312
    606 C           -1.6655     5.7654    -9.0918 C       0      f0     0.0012
    607 H           -1.7013     4.2521    -7.3688 H       0      f0     0.0352
    608 C           -1.2121     5.0860    -6.8689 C       0      f0    -0.0021
    609 C            1.4879     3.2897    -7.4976 C       0      f0    -0.0071
    610 C            1.3019     2.7637    -8.7114 C       0      f0    -0.0088
    611 C            1.6189     2.1903    -9.8842 C      17     f17    -0.0008
    612 C            3.0260     2.5341   -10.1611 C      17     f17    -0.0045
    613 C            3.8177     3.2277    -9.3413 C       0      f0    -0.0030
    614 C            4.2760     3.9113    -8.5448 C       0      f0    -0.0097
    615 C            5.3799     4.3155    -7.7332 C       0      f0     0.0008
    616 C            6.5110     3.7020    -8.5831 C      10     f10     0.0029
    617 C            6.7729     5.9830   -10.4058 C      15     f15    -0.0028
    618 C            6.8652     2.3312    -8.3884 C      10     f10    -0.0116
    619 C            7.0224     4.4986    -9.9287 C      10     f10    -0.0031
    620 C            8.0202     2.0132    -9.1553 C      10     f10     0.0030
    621 C            8.7478     2.9238    -9.9461 C      10     f10    -0.0004
    622 C            9.8658     5.6910    -9.3338 C       0      f0    -0.0180
    623 C            9.9601     2.7667   -10.7430 C      10     f10     0.0005
    624 C           10.1289     5.0284   -10.7066 C       0      f0     0.0081
    625 H           10.8955     3.3727    -6.6917 H       0      f0     0.0281
    626 H           10.5706     5.8393    -8.4672 H       0      f0     0.0223
    627 C           11.9541     2.8649    -6.6783 C       0      f0    -0.0126
    628 C           12.0676     2.2409    -9.7241 C      10     f10    -0.0011
    629 C           12.1882     5.3741    -6.8068 C       0      f0    -0.0202
    630 C           12.1594     3.3627   -10.8060 C      10     f10    -0.0006
    631 C           12.9040     1.9491    -8.5730 C       0      f0    -0.0029
    632 C           12.7869     4.0711    -6.7893 C       0      f0    -0.0050
    633 C           14.0936     2.7793    -8.1952 C       0      f0     0.0018
    634 C           14.1214     4.0870    -7.5812 C       0      f0    -0.0218
    635 C           14.4490     4.3087   -10.3788 C       0      f0    -0.0033
    636 H           14.7535     4.6713    -6.8530 H       0      f0     0.0202
    637 C           15.1352     5.7103   -10.2429 C       0      f0     0.0063
    638 C          -14.5090     9.1799    -9.4642 C       0      f0     0.0242
    639 C          -14.1967     8.0108   -10.3143 C       0      f0     0.0218
    640 C          -12.8826     7.8377   -10.7546 C      14     f14    -0.0241
    641 O          -12.0143     7.7381    -8.2234 O      14     f14    -0.4825
    642 C          -11.6562     7.6611    -9.7461 C      14     f14     0.2352
    643 C          -10.7615     7.2987    -7.3406 C      14     f14     0.2021
    644 C          -10.5504     7.8084   -10.2146 C      14     f14    -0.0761
    645 C           -9.3723     7.2157    -8.0220 C      14     f14    -0.0561
    646 C           -9.4928     8.0561    -9.1044 C      14     f14     0.0389
    647 C           -8.6174     8.8082   -10.1488 C       0      f0     0.0140
    648 C           -8.6447    10.1381    -7.2710 C       0      f0     0.3482
    649 C           -8.1502     6.9847    -7.2605 C      14     f14     0.0289
    650 C           -7.2556     6.1712    -8.0133 C       0      f0    -0.0002
    651 C           -5.1762     6.9366   -10.1595 C       0      f0     0.0062
    652 C           -4.8372     9.4965    -9.5128 C       0      f0     0.0625
    653 C           -4.8004     7.6418    -7.5700 C       8      f8     0.1169
    654 C           -4.8249     8.0690    -9.0137 C       0      f0     0.0040
    655 O           -4.6491     9.1469    -6.7260 O       8      f8    -0.4145
    656 C           -4.5403     6.6754    -6.5092 C       8      f8     0.2335
    657 H           -3.7846     7.4886    -9.2241 H       0      f0     0.0333
    658 C           -1.6975     7.2074    -9.6279 C       0      f0     0.2506
    659 C           -1.1965     6.2640    -7.6742 C       0      f0    -0.0160
    660 C           -1.3531     7.6144    -7.1622 C       0      f0    -0.0111
    661 C           -1.1162     8.7415    -8.0708 C       0      f0     0.0002
    662 C           -1.3321     8.6086    -9.4572 C       0      f0    -0.0446
    663 C           -0.6713     9.4071   -10.3781 C       0      f0     0.0236
    664 H            0.2621     6.7856   -11.1327 H       0      f0     0.0589
    665 C            2.1118     9.0629    -7.3034 C       0      f0     0.0110
    666 C            2.0550     7.6285   -10.0088 C       0      f0    -0.0181
    667 H            2.5721     6.6217   -10.0013 H       0      f0     0.0171
    668 C            2.4765     9.9453    -8.0375 C       0      f0    -0.0088
    669 C            3.0801     8.7132   -10.1772 C       0      f0     0.0014
    670 C            3.4007     9.9354    -9.4509 C       0      f0     0.0007
    671 H            5.8677     9.5844    -9.4361 H       0      f0     0.0206
    672 H            5.7560     7.7643    -9.0507 H       0      f0     0.0222
    673 H            5.9308     8.9401    -7.8141 H       0      f0     0.0174
    674 C            5.9677     8.4576    -9.7966 C      15     f15    -0.0365
    675 C            6.3082     9.0578    -6.7081 C       0      f0    -0.0097
    676 C            7.5766     8.4257   -10.3957 C      15     f15     0.0021
    677 C            7.6329     6.7578   -10.1917 C      15     f15    -0.0011
    678 C            8.4657     8.8434    -9.2594 C      15     f15    -0.0022
    679 C            8.8160     6.6257    -9.1048 C      15     f15     0.0029
    680 C            8.9369     7.7117    -8.2873 C      15     f15    -0.0158
    681 C            9.4005     7.8077    -6.9188 C       0      f0     0.0139
    682 H           12.7787     8.9385    -6.6494 H       0      f0     0.0251
    683 C          -14.7696    13.5848    -7.7809 C       0      f0     0.0025
    684 C          -14.8609    10.4518    -8.8988 C       0      f0    -0.0186
    685 H          -14.4575    10.4878    -7.7433 H       0      f0     0.0326
    686 C          -14.7989    12.5798    -8.5699 C       0      f0    -0.0074
    687 C          -13.9473    11.6683    -9.1516 C       0      f0    -0.0096
    688 H          -13.1222    11.7827   -10.0660 H       0      f0     0.0187
    689 H          -11.1395    14.0974    -8.2765 H       0      f0     0.0199
    690 C          -10.8661    11.5733    -6.8158 C       0      f0     0.0295
    691 C          -10.6669    14.1497   -10.3230 C       0      f0    -0.0032
    692 C           -9.8837    11.5517    -8.8594 C       0      f0     0.0227
    693 C           -9.8117    11.9561   -10.2984 C       0      f0    -0.0028
    694 C           -9.8590    11.0949    -7.5061 C       0      f0    -0.0734
    695 H           -8.3071    12.4843    -7.5511 H       0      f0     0.0652
    696 H           -7.8819    13.1871    -9.0898 H       0      f0     0.0322
    697 O           -7.4848    10.3952    -7.4116 O       0      f0    -0.4840
    698 C           -7.7766    13.2575    -8.0174 C       0      f0    -0.0393
    699 C           -6.4670    13.4540    -7.5793 C       0      f0     0.0351
    700 C           -5.0986    13.6541    -7.4095 C       0      f0     0.0074
    701 C           -4.3533    10.8459    -9.2059 C       0      f0     0.0517
    702 C           -3.7321    13.3139    -8.2027 C       0      f0     0.0104
    703 C           -3.6811    12.1209    -9.1001 C       0      f0    -0.0179
    704 H           -2.6899    12.1188    -9.4701 H       0      f0     0.0135
    705 C           -2.4794    13.4511    -7.8590 C       0      f0    -0.0054
    706 H           -1.9494    11.1504   -10.7403 H       0      f0     0.0126
    707 H           -1.3746    10.9668    -8.3013 H       0      f0     0.0184
    708 C           -1.3253    13.7156    -7.3003 C       0      f0    -0.0207
    709 C           -1.1815    10.1805    -7.5379 C       0      f0     0.0026
    710 H            1.7738    10.7338    -7.8470 H       0      f0     0.0253
    711 C            3.3915    12.4042   -10.6323 C       0      f0     0.1948
    712 O            4.0180    13.8596   -10.5085 O       0      f0    -0.4579
    713 C            4.0293    11.2712    -9.9621 C       0      f0    -0.0322
    714 C            5.0635    11.6509    -8.0814 C       0      f0     0.0114
    715 C            5.5068    11.6599    -6.6636 C       0      f0     0.0058
    716 C            5.3048    11.5094    -9.3570 C       0      f0     0.0234
    717 H            6.5877    13.8842    -8.6481 H       0      f0     0.0351
    718 C            6.7461    12.2203    -9.7530 C       0      f0     0.0110
    719 C            7.1959    13.5549    -9.5155 C       0      f0    -0.0018
    720 C            7.6577    11.0491   -10.0660 C      15     f15    -0.0058
    721 H            7.9908    11.5228    -6.6160 H       0      f0     0.0249
    722 C            8.3348    10.2901    -8.9448 C      15     f15    -0.0071
    723 C            8.3649   -14.1696   -10.2176 C       4      f4    -0.0001
    724 C            8.9595    11.3108    -6.7326 C      32     f32    -0.0334
    725 C            9.2285    13.9203    -6.5584 C       0      f0    -0.0208
    726 C            9.2225    11.2169    -8.3186 C       0      f0    -0.0009
    727 C           10.0800    12.1712    -8.9201 C       0      f0    -0.0218
    728 H           10.3654    12.9273    -8.2079 H       0      f0     0.0152
    729 H           10.8017    11.7370    -7.1108 H       0      f0     0.0286
    730 C           10.8578    12.3132   -10.1427 C       4      f4     0.0015
    731 C           11.8507    11.4907    -7.0584 C       0      f0    -0.0620
    732 C           11.6966    13.7633   -10.0891 C       4      f4    -0.0188
    733 H           12.1226    10.6099    -7.7263 H       0      f0     0.0230
    734 H           12.5136    13.8044    -9.2595 H       0      f0     0.0155
    735 H           12.3607    12.3885    -7.2268 H       0      f0     0.0228
    736 C          -14.6519   -10.8633    -5.0941 C       0      f0    -0.0166
    737 H          -14.5673   -11.9009    -5.1838 H       0      f0     0.0209
    738 C          -13.9356   -10.6236    -2.5397 C       1      f1     0.0215
    739 C          -13.2528   -14.0360    -6.0944 C       0      f0     0.0036
    740 C          -12.0192   -13.7041    -6.1454 C       0      f0    -0.0106
    741 C          -11.9297   -10.3700    -4.0780 C       1      f1     0.0076
    742 C          -11.6400   -11.1955    -2.9232 C       1      f1    -0.0227
    743 C          -11.2381   -11.0307    -5.3006 C       1      f1    -0.0084
    744 H          -10.7548   -11.7563    -2.7847 H       0      f0     0.0202
    745 C          -10.6014   -13.6480    -5.7156 C       1      f1    -0.0051
    746 C          -10.3853   -12.2007    -5.3519 C       1      f1     0.0001
    747 C           -9.4695   -10.4546    -6.5025 C       1      f1     0.0395
    748 C           -9.5323    14.1218    -5.0826 C       1      f1     0.0009
    749 C           -9.2617   -11.7707    -5.9256 C       1      f1     0.0074
    750 C           -8.9075   -13.6148    -2.2621 C       0      f0    -0.0021
    751 H           -8.6836   -10.6352    -3.1992 H       0      f0     0.0658
    752 C           -8.1657   -12.7373    -5.9539 C       1      f1    -0.0134
    753 C           -8.1450   -13.9470    -5.4371 C       1      f1    -0.0167
    754 C           -8.0077   -11.1016    -2.4776 C       0      f0    -0.0333
    755 C           -6.6244   -10.3005    -5.5669 C       0      f0     0.3355
    756 C           -6.6344   -11.2345    -2.9594 C       0      f0     0.0197
    757 H           -6.3784   -12.1561    -3.1681 H       0      f0     0.0143
    758 C           -5.6359   -11.1954    -6.0560 C       0      f0    -0.1120
    759 C           -5.6549   -10.3789    -2.5427 C       0      f0    -0.0209
    760 C           -4.7374   -11.4597    -4.7994 C       0      f0     0.0070
    761 H           -4.4710   -10.5578    -2.7596 H       0      f0     0.0192
    762 C           -4.5628   -12.7489    -4.3156 C       0      f0    -0.0124
    763 C           -4.4119   -13.7168    -5.4435 C       0      f0    -0.0155
    764 C           -3.4853   -13.2907    -3.2935 C       0      f0    -0.0107
    765 H           -2.4900   -10.7766    -3.6960 H       0      f0     0.0310
    766 C           -2.1600   -12.8966    -3.9655 C       0      f0    -0.0134
    767 C           -0.7300   -13.1000    -3.8160 C       0      f0     0.0040
    768 C            0.1558   -12.4771    -4.7809 C       0      f0    -0.0038
    769 C            0.6518   -11.7600    -5.6545 C       0      f0    -0.0003
    770 H            1.6500   -10.4432    -2.6617 H       0      f0     0.0437
    771 C            2.2474   -11.4623    -5.6515 C       0      f0     0.0008
    772 C            2.3007   -10.3262    -3.6107 C       0      f0    -0.0215
    773 C            2.8123   -11.2794    -4.5328 C       0      f0     0.0064
    774 H            3.0099   -13.3431    -6.4154 H       0      f0     0.0301
    775 C            4.1968   -11.7061    -4.6938 C       0      f0    -0.0246
    776 C            4.4787   -11.4228    -6.0241 C       0      f0     0.0018
    777 H            5.0249   -11.7294    -3.9451 H       0      f0     0.0142
    778 H            6.7460   -13.0470    -4.7055 H       0      f0     0.0159
    779 C            7.5298   -13.9548    -4.8043 C       0      f0    -0.0356
    780 H            7.4570   -14.1422    -2.6884 H       0      f0     0.0150
    781 C            8.2004   -13.7193    -6.3346 C       0      f0    -0.0009
    782 H            8.3437   -14.1205    -4.0114 H       0      f0     0.0148
    783 H            8.7150   -11.4216    -3.5406 H       0      f0     0.0122
    784 C            9.6186   -11.0131    -4.2575 C      30     f30    -0.0159
    785 C            9.8395   -10.9705    -5.7611 C      30     f30    -0.0022
    786 C           10.1265   -14.1132    -2.3076 C       0      f0    -0.0175
    787 C           10.2973   -12.4234    -4.0853 C       0      f0     0.0043
    788 C           10.2251   -12.7756    -2.5934 C       0      f0    -0.0092
    789 H           11.1354   -12.7372    -6.2387 H       0      f0     0.0148
    790 C           10.8062   -13.1822    -5.0693 C       0      f0    -0.0155
    791 C           11.1134   -10.2397    -5.9439 C      30     f30     0.0083
    792 H           13.3021   -13.1456    -3.5771 H       0      f0     0.0365
    793 C           13.7148   -11.3658    -6.3275 C       0      f0    -0.0267
    794 H           13.6902   -12.2288    -5.9838 H       0      f0     0.0227
    795 C           13.4949   -14.1631    -4.0603 C       5      f5    -0.0269
    796 C           14.4782   -10.3654    -5.5284 C       0      f0    -0.0122
    797 H           14.9698   -13.1737    -3.1003 H       0      f0     0.0259
    798 C          -15.0965    -7.0637    -3.6342 C       0      f0    -0.0204
    799 H          -15.0852    -7.8836    -3.0029 H       0      f0     0.0208
    800 C          -14.1038   -10.0998    -3.8012 C       1      f1    -0.0029
    801 C          -14.0701    -7.1958    -4.5676 C       0      f0    -0.0034
    802 C          -13.0201    -7.1069    -5.5968 C       1      f1    -0.0047
    803 C          -12.9761    -9.3488    -4.4049 C       1      f1    -0.0052
    804 C          -12.3112    -8.4104    -5.2629 C       1      f1    -0.0009
    805 C          -11.1596    -8.5886    -6.0542 C       1      f1     0.0042
    806 C          -10.5906    -9.8778    -5.8145 C       1      f1     0.0158
    807 O           -7.4104    -9.5500    -4.9760 O       0      f0    -0.5087
    808 C           -6.6898    -8.1180    -2.2412 C       0      f0     0.0381
    809 C           -5.5517    -8.9485    -2.4930 C       0      f0     0.0374
    810 H           -4.8474    -9.1122    -4.9611 H       0      f0     0.0454
    811 C           -4.0323   -10.0035    -5.1753 C       0      f0    -0.0381
    812 C           -4.1362    -8.3610    -2.3249 C      45     f45    -0.0693
    813 H           -3.8632   -10.0694    -6.2027 H       0      f0     0.0270
    814 C           -2.9910    -8.8180    -3.1496 C      45     f45     0.0237
    815 C           -2.8274    -9.9115    -4.1924 C       0      f0    -0.0300
    816 C           -2.5409    -6.5471    -2.6782 C      45     f45    -0.0195
    817 C           -2.2255    -7.7409    -3.6661 C      45     f45     0.0188
    818 H           -2.1156    -9.6797    -5.0566 H       0      f0     0.0289
    819 C           -0.9556    -7.1913    -4.1412 C      45     f45     0.0494
    820 C           -0.4911    -8.0576    -5.1780 C       0      f0     0.0163
    821 C            0.0953    -8.6125    -6.0485 C       0      f0    -0.0153
    822 H            0.8045    -7.9956    -6.6902 H       0      f0     0.0219
    823 C            2.5474    -9.1900    -4.2382 C       0      f0     0.0107
    824 C            2.7965    -6.7179    -5.6097 C       0      f0    -0.0004
    825 C            2.7472    -7.9214    -4.8490 C       0      f0    -0.0039
    826 C            4.2639    -6.1022    -3.6611 C       0      f0     0.0006
    827 C            4.8010    -7.3075    -3.4274 C       0      f0    -0.0017
    828 C            5.1657    -8.3777    -4.6097 C       0      f0    -0.0127
    829 C            5.0780    -8.4879    -5.8566 C       0      f0    -0.0180
    830 H            5.4168    -9.1564    -3.7369 H       0      f0     0.0170
    831 C            5.4632    -7.7984    -2.1588 C       0      f0     0.0133
    832 C            6.8484    -7.7493    -2.2488 C       0      f0     0.0131
    833 C            7.6636    -7.1272    -3.1107 C       0      f0    -0.0017
    834 C            8.2034    -6.3940    -4.0819 C       0      f0     0.0088
    835 H            8.5478    -8.0365    -5.5264 H       0      f0     0.0332
    836 C            9.1988    -7.3033    -4.8942 C       0      f0    -0.0093
    837 C           10.4701    -6.8955    -5.0508 C       0      f0     0.0102
    838 C           10.3286    -9.7529    -3.7333 C      30     f30     0.0073
    839 C           10.9520    -9.2536    -2.5339 C       0      f0    -0.0153
    840 C           11.4905    -9.6568    -4.6612 C      30     f30    -0.0179
    841 C           11.5666    -6.3559    -4.9584 C       0      f0    -0.0028
    842 C           11.9906    -8.2305    -2.2205 C       0      f0     0.0071
    843 H           12.3806    -9.3228    -4.3500 H       0      f0     0.0283
    844 C           12.5575    -7.5502    -3.1537 C       0      f0    -0.0097
    845 C           12.8895    -7.0026    -4.3101 C       0      f0    -0.0044
    846 C           14.0793    -6.2749    -4.0968 C       0      f0     0.0009
    847 H           14.0599    -9.4249    -5.7313 H       0      f0     0.0179
    848 C          -14.2493    -2.3553    -5.1482 C       0      f0     0.0016
    849 C          -11.9127    -2.5546    -6.1048 C       0      f0    -0.0082
    850 H          -12.2058    -3.6772    -6.0424 H       0      f0     0.0234
    851 C          -10.6646    -1.9776    -6.2418 C       0      f0    -0.0123
    852 H           -9.8720    -2.7039    -6.0869 H       0      f0     0.0312
    853 H           -8.3359    -5.5293    -5.7610 H       0      f0     0.0144
    854 C           -7.7071    -4.6697    -5.9900 C       0      f0     0.2198
    855 O           -7.1704    -4.1792    -4.6666 O       0      f0    -0.6046
    856 H           -7.3116    -2.7557    -1.9613 H       0      f0     0.0406
    857 H           -6.7049    -4.9879    -4.3505 H       0      f0     0.2897
    858 H           -4.1743    -3.7601    -5.2105 H       0      f0     0.0788
    859 C           -4.1276    -2.6721    -5.5236 C       0      f0     0.0027
    860 H           -2.7154    -4.1546    -2.1530 H       0      f0     0.0795
    861 O           -1.8312    -5.0153    -5.8007 O       0      f0    -0.4571
    862 C           -1.6277    -5.6126    -2.8339 C      45     f45     0.0471
    863 C           -0.9471    -4.1801    -6.4496 C       0      f0     0.2984
    864 C           -0.5985    -6.1351    -3.6217 C      45     f45     0.0072
    865 C            0.0712    -3.4038    -3.1094 C       0      f0    -0.0080
    866 C           -0.0225    -3.4602    -4.3693 C       0      f0     0.0604
    867 C            0.0916    -3.3911    -5.6726 C       0      f0    -0.0772
    868 H            0.3404    -5.6899    -4.2231 H       0      f0     0.0310
    869 H            1.0246    -2.8934    -6.0574 H       0      f0     0.0318
    870 C            3.1064    -3.0671    -4.4138 C       0      f0    -0.0270
    871 C            3.2355    -4.3001    -5.3510 C       0      f0    -0.0015
    872 C            3.4548    -5.7293    -4.7740 C       0      f0    -0.0068
    873 H            3.5842    -2.7933    -3.5711 H       0      f0     0.0208
    874 C            4.6442    -5.2162    -2.2793 C       0      f0    -0.0406
    875 C            5.1683    -3.0046    -5.8819 C       0      f0    -0.0101
    876 C            5.8003    -4.6345    -2.8678 C       0      f0     0.0342
    877 H            6.4604    -5.9809    -4.5957 H       0      f0     0.0258
    878 H            7.1868    -3.2504    -2.1746 H       0      f0     0.0397
    879 C            6.8000    -3.7066    -3.0697 C       0      f0    -0.0289
    880 C            7.4145    -5.4318    -4.9681 C       0      f0    -0.0296
    881 H            7.1994    -2.1969    -3.9873 H       0      f0     0.0249
    882 H            7.5524    -5.0296    -6.0187 H       0      f0     0.0409
    883 C            7.6806    -4.0382    -4.2205 C       0      f0     0.0068
    884 C            8.9582    -2.4108    -6.3172 C       0      f0    -0.0391
    885 C            9.0018    -3.4363    -4.0096 C       0      f0    -0.0236
    886 H            9.5938    -3.1303    -4.7481 H       0      f0     0.0264
    887 C           10.0338    -4.1450    -3.3298 C       0      f0     0.0063
    888 H            9.9188    -2.0766    -6.6638 H       0      f0     0.0303
    889 H           10.7551    -5.1094    -6.3046 H       0      f0     0.0497
    890 C           10.9049    -4.7712    -2.5855 C       0      f0    -0.0272
    891 C           11.6134    -5.0306    -5.6729 C       0      f0    -0.0237
    892 H           11.9398    -5.0239    -2.8770 H       0      f0     0.0190
    893 C           12.2227    -2.4275    -5.8865 C      31     f31    -0.0034
    894 C           12.4142    -3.8991    -5.4055 C      31     f31    -0.0013
    895 C           13.9861    -3.9878    -5.2882 C      31     f31    -0.0042
    896 H           14.4792    -2.9054    -3.7926 H       0      f0     0.0226
    897 C           14.2185    -5.4601    -5.2725 C       0      f0    -0.0000
    898 C           14.5886    -2.5937    -4.8084 C      31     f31    -0.0223
    899 C          -14.5648    -0.3307    -2.5824 C       0      f0     0.0022
    900 C          -14.2195     0.9402    -2.9990 C       0      f0    -0.0192
    901 C          -13.6120    -1.4521    -2.8841 C       0      f0    -0.0224
    902 H          -13.1122    -0.7758    -5.4879 H       0      f0     0.0206
    903 C          -13.1729    -1.8692    -5.4403 C       0      f0    -0.0183
    904 H          -13.1678     1.1302    -3.2771 H       0      f0     0.0217
    905 H          -12.5144    -1.6019    -2.9191 H       0      f0     0.0192
    906 C          -11.8463     1.1710    -5.6009 C       0      f0    -0.0146
    907 H          -11.0976    -0.5752    -2.5568 H       0      f0     0.0160
    908 C          -11.3898    -0.1311    -4.9471 C       0      f0     0.0006
    909 C          -10.7251    -0.4019    -3.6251 C       0      f0    -0.0346
    910 H          -10.2596    -1.3855    -3.7434 H       0      f0     0.0228
    911 C           -9.7997     1.8420    -2.2619 C       0      f0     0.0016
    912 C           -9.4778     0.7783    -3.4321 C       0      f0    -0.0168
    913 H           -9.4208    -2.0541    -2.6615 H       0      f0     0.0238
    914 H           -9.0672     1.0711    -4.4857 H       0      f0     0.0169
    915 C           -8.5734    -1.4049    -2.7945 C       0      f0    -0.0197
    916 C           -8.1841     0.1246    -3.0620 C       0      f0    -0.0043
    917 C           -7.3181    -1.7435    -2.5426 C       0      f0     0.0133
    918 H           -7.3479    -2.0839    -5.7642 H       0      f0     0.0674
    919 C           -6.8903     0.5541    -2.5463 C       0      f0    -0.0065
    920 H           -6.0308     0.5757    -6.4059 H       0      f0     0.0131
    921 C           -6.0795    -0.6970    -2.6261 C       0      f0     0.0050
    922 C           -5.8478     1.0744    -5.4620 C       0      f0    -0.0205
    923 C           -4.5228     0.7152    -4.5193 C       0      f0    -0.0011
    924 C           -4.4439    -0.4560    -3.7395 C       0      f0     0.0100
    925 C           -4.2684    -1.5906    -4.5409 C       0      f0     0.0284
    926 C           -3.3919     1.2683    -4.0144 C       0      f0     0.0112
    927 C           -3.1998     0.3743    -2.9270 C       0      f0    -0.0035
    928 H           -2.2214    -0.1017    -2.5465 H       0      f0     0.0941
    929 H           -2.1504     1.5521    -5.7755 H       0      f0     0.0496
    930 C           -0.8235     1.9831    -2.8242 C       0      f0     0.2088
    931 O           -0.2300     0.7109    -3.7634 O       0      f0    -0.6537
    932 H            0.4267     1.1036    -6.1469 H       0      f0     0.0495
    933 H            0.6067     0.8066    -3.7171 H       0      f0     0.3238
    934 C            1.2946     0.3279    -6.2661 C       0      f0    -0.0123
    935 C            1.8826    -0.7958    -5.4156 C       0      f0     0.0144
    936 C            2.3650    -1.9911    -5.0434 C       0      f0    -0.0046
    937 H            3.6609     1.3547    -6.6528 H       0      f0     0.0255
    938 C            3.8258     1.4425    -5.6377 C      18     f18    -0.0189
    939 C            4.1256     1.2867    -3.2592 C      18     f18     0.0019
    940 C            4.2980     0.1480    -5.2358 C      18     f18     0.0028
    941 C            4.7127     0.1779    -3.8600 C      18     f18     0.0004
    942 C            4.7603    -0.7791    -6.0443 C      18     f18    -0.0043
    943 C            5.7565    -0.7513    -3.3876 C      18     f18     0.0061
    944 C            5.7766    -1.6773    -5.6950 C      18     f18     0.0001
    945 C            6.4028    -1.5134    -4.3199 C      18     f18    -0.0165
    946 H            7.8777     1.3717    -1.8866 H       0      f0     0.2976
    947 H            8.2528    -1.8987    -5.6309 H       0      f0     0.0291
    948 O            8.5505     1.8310    -2.2887 O       0      f0    -0.6473
    949 H           11.0272     0.2738    -2.4935 H       0      f0     0.0585
    950 C           12.0779    -0.0517    -2.2794 C       0      f0    -0.0238
    951 C           13.2899    -1.6371    -5.3835 C      31     f31     0.0053
    952 C           13.4179    -0.3218    -5.7732 C      31     f31    -0.0223
    953 C           13.4623     0.5364    -2.9847 C       0      f0     0.0059
    954 H           14.2735     0.2222    -5.6198 H       0      f0     0.0172
    955 C           13.8931     2.0069    -3.4651 C       0      f0    -0.0203
    956 C           14.3059    -0.3947    -2.1038 C       0      f0     0.0031
    957 C          -14.9790     2.2911    -2.9302 C       0      f0     0.0030
    958 C          -14.5880     3.5566    -2.7069 C       0      f0     0.0030
    959 C          -14.0714     4.7651    -2.6816 C       0      f0     0.0117
    960 C          -13.5534     5.2883    -3.9014 C       0      f0    -0.0068
    961 C          -12.9640     4.4814    -4.8857 C       0      f0    -0.0030
    962 C          -13.0262     3.4177    -5.8131 C       0      f0    -0.0088
    963 C          -12.0771     2.2943    -6.2725 C       0      f0    -0.0058
    964 H          -11.4629     3.5251    -2.9961 H       0      f0     0.0259
    965 H          -10.2290     5.3425    -7.2135 H       0      f0     0.0153
    966 C          -10.3717     3.2642    -2.7646 C       0      f0    -0.0388
    967 H           -9.8758     3.4044    -3.6348 H       0      f0     0.0220
    968 C           -7.8535     5.6116    -2.3413 C       0      f0    -0.0198
    969 C           -7.7372     5.5156    -5.6077 C       0      f0     0.0050
    970 C           -7.2518     4.4068    -4.9803 C       0      f0     0.0068
    971 C           -6.9645     3.2637    -6.2021 C       0      f0    -0.0208
    972 C           -6.7538     2.7878    -3.8010 C       0      f0    -0.0005
    973 C           -6.6824     2.0756    -2.5319 C       0      f0    -0.0028
    974 C           -6.4179     4.0101    -3.8983 C       0      f0    -0.0105
    975 C           -6.5876     2.2479    -5.1204 C       0      f0     0.0019
    976 H           -6.0214     4.8339    -3.0394 H       0      f0     0.0191
    977 C           -3.6246     4.6254    -5.4064 C       8      f8     0.2307
    978 C           -3.5263     5.2530    -4.1727 C       8      f8    -0.0652
    979 C           -3.1726     3.2470    -5.3667 C       0      f0    -0.0528
    980 C           -2.5674     5.1614    -2.9364 C       8      f8     0.0064
    981 C           -2.6187     2.4445    -4.3915 C       0      f0     0.0302
    982 C           -2.1034     3.9531    -2.4081 C       0      f0     0.0040
    983 C           -1.9425     2.8016    -3.1807 C       0      f0    -0.0431
    984 C            0.1195     5.0019    -6.1053 C       0      f0    -0.0060
    985 C            0.5257     6.1732    -5.4559 C       0      f0    -0.0058
    986 C            1.1095     3.6824    -5.9795 C       0      f0    -0.0049
    987 C            1.6020     3.1715    -4.7747 C       0      f0    -0.0026
    988 H            2.2866     5.5838    -3.9033 H       0      f0     0.0162
    989 C            2.3967     2.6276    -3.8315 C      18     f18    -0.0109
    990 C            2.5964     2.6172    -2.2820 C      18     f18    -0.0084
    991 C            3.1063     5.9261    -3.4275 C      33     f33    -0.0131
    992 C            3.4087     1.9495    -4.3096 C      18     f18     0.0011
    993 C            3.8635     5.1776    -2.4719 C      33     f33    -0.0161
    994 H            4.4644     4.2840    -2.4275 H       0      f0     0.0177
    995 H            4.4496     4.8518    -5.7555 H       0      f0     0.0187
    996 C            5.3540     4.8687    -6.3809 C       0      f0    -0.0196
    997 C            6.2584     5.6281    -5.9141 C       0      f0     0.0001
    998 H            6.6267     3.9728    -2.7177 H       0      f0     0.0412
    999 C            9.5121     5.2560    -5.9647 C       0      f0    -0.0159
   1000 H            9.1873     4.7387    -5.0961 H       0      f0     0.0379
   1001 H           10.7315     4.6398    -2.9277 H       0      f0     0.0359
   1002 C           10.8147     5.3224    -6.4438 C       0      f0     0.0095
   1003 C           11.5168     4.4489    -3.7139 C       0      f0    -0.0322
   1004 H           11.8171     4.9839    -4.4754 H       0      f0     0.0364
   1005 C           12.0427     3.4355    -2.7715 C       0      f0     0.0124
   1006 C           13.1333     2.8258    -2.3670 C       0      f0     0.0039
   1007 H           13.7525     1.8565    -4.6036 H       0      f0     0.0179
   1008 C          -14.9801     9.9193    -2.7413 C       5      f5    -0.0149
   1009 H          -14.1718     8.2610    -5.4421 H       0      f0     0.0304
   1010 C          -13.5282     7.3860    -4.9150 C       0      f0    -0.0347
   1011 C          -12.9078     6.6648    -3.6911 C       0      f0     0.0067
   1012 C          -12.4440     7.3613    -5.7057 C       0      f0     0.0680
   1013 C          -11.9176     6.8960    -2.5967 C       0      f0    -0.0299
   1014 C          -11.1066     7.0875    -5.9296 C      14     f14    -0.0465
   1015 C          -10.6609     7.5035    -2.8785 C       0      f0    -0.0032
   1016 C           -9.9240     6.6676    -4.9887 C      14     f14     0.0010
   1017 C           -9.5935     6.8813    -3.6933 C       0      f0    -0.0012
   1018 H           -8.9467     9.2049    -6.6191 H       0      f0    -0.0131
   1019 C           -8.8454     9.3425    -2.4234 C      34     f34    -0.0089
   1020 C           -8.6006     6.4855    -5.8690 C      14     f14    -0.0162
   1021 C           -8.2208     6.9968    -2.9464 C       0      f0    -0.0146
   1022 H           -7.1975     7.5647    -4.9170 H       0      f0     0.0397
   1023 C           -7.5691     9.0112    -3.0999 C      34     f34     0.0043
   1024 C           -7.1685     7.6495    -3.7719 C       0      f0    -0.0261
   1025 C           -6.6493    10.1857    -3.0181 C      34     f34     0.0029
   1026 H           -6.1386     7.0247    -3.3647 H       0      f0     0.0209
   1027 C           -4.8261     9.3648    -4.0099 C       8      f8    -0.0470
   1028 C           -4.6020     8.7488    -5.2482 C       8      f8     0.2312
   1029 C           -4.0989     8.6107    -3.0232 C       8      f8     0.0020
   1030 C           -4.4271     7.3275    -5.1578 C       8      f8    -0.0862
   1031 C           -3.9242     6.6243    -4.0272 C       8      f8     0.0410
   1032 C           -3.8563     7.2911    -2.9289 C       8      f8    -0.0191
   1033 C           -1.2312     9.9680    -3.4848 C       0      f0    -0.0438
   1034 H           -0.9869     7.5089    -6.1554 H       0      f0     0.0260
   1035 C            0.0948    10.1554    -4.1827 C      35     f35     0.0180
   1036 C            0.5505     9.8329    -5.5443 C      35     f35     0.0211
   1037 H            1.0532     6.7364    -3.5247 H       0      f0     0.0166
   1038 C            0.8373     7.0741    -4.4834 C       0      f0    -0.0158
   1039 C            1.2959     8.6773    -6.2316 C       0      f0     0.0194
   1040 C            1.8688     7.8443    -5.2456 C       0      f0    -0.0422
   1041 C            3.0653     8.2091    -4.5994 C      33     f33     0.2496
   1042 O            3.3224     9.6620    -4.4578 O      33     f33    -0.5316
   1043 C            3.5961     7.3353    -3.5451 C      33     f33    -0.0580
   1044 C            4.1441     9.7629    -3.1384 C      33     f33     0.2277
   1045 C            4.3461     7.5570    -2.3818 C      33     f33     0.0363
   1046 H            5.9655     8.1154    -4.6453 H       0      f0     0.0274
   1047 C            6.5155     8.0238    -5.7117 C       0      f0    -0.0096
   1048 H            7.0697     9.6205    -4.3018 H       0      f0     0.0276
   1049 H            7.5189     8.2097    -2.2364 H       0      f0     0.0277
   1050 C            7.3449     6.5876    -5.8517 C       0      f0    -0.0029
   1051 C            8.7274     6.5097    -6.2077 C       0      f0     0.0243
   1052 C            9.4911     9.0870    -6.4800 C       0      f0     0.0217
   1053 C            9.7508     7.5815    -2.5275 C       0      f0     0.2935
   1054 C           10.3833     9.6096    -3.5909 C      32     f32     0.1556
   1055 O           10.3371     8.0275    -3.8588 O       0      f0    -0.4802
   1056 C           10.6943    10.1517    -2.4218 C      32     f32     0.2209
   1057 H           12.9231     6.3575    -6.5485 H       0      f0     0.0231
   1058 C           12.9065     9.7130    -5.7628 C       5      f5    -0.0121
   1059 H           13.2396     7.4906    -3.5562 H       0      f0     0.0513
   1060 C           13.6320     9.4037    -4.5929 C       5      f5     0.0178
   1061 C           14.0639     7.9731    -3.9892 C       5      f5    -0.0445
   1062 H           14.2129     7.6064    -4.8853 H       0      f0     0.0264
   1063 C           14.8051     8.4593    -2.7046 C       5      f5     0.0049
   1064 H          -13.8560   -13.9213    -3.9258 H       0      f0     0.0174
   1065 H          -13.8373     9.8344    -3.2835 H       0      f0     0.0154
   1066 C          -13.5154    13.9015    -4.7489 C       0      f0    -0.0209
   1067 C          -12.3067    13.0943    -4.5275 C       0      f0    -0.0003
   1068 C          -11.5328    11.4406    -5.6953 C       0      f0    -0.0248
   1069 C          -11.3135    12.4539    -4.4003 C       0      f0    -0.0034
   1070 H          -11.6054    10.4375    -5.3158 H       0      f0     0.0280
   1071 C          -10.0558   -14.0873    -2.6859 C       0      f0    -0.0188
   1072 C          -10.1395    13.3590    -3.9153 C       0      f0    -0.0180
   1073 H           -9.3061    12.7030    -3.9967 H       0      f0     0.0237
   1074 C           -7.1950    11.1529    -2.1426 C      34     f34    -0.0040
   1075 H           -7.3002    13.8936    -5.2581 H       0      f0     0.0251
   1076 H           -5.7377    13.2880    -2.1922 H       0      f0     0.0182
   1077 H           -5.9583    10.9761    -5.0252 H       0      f0     0.0726
   1078 C           -5.5427    10.6953    -3.9257 C       8      f8     0.0004
   1079 C           -4.4171    11.4395    -3.0307 C       8      f8    -0.0147
   1080 H           -3.6429    14.0446    -5.1138 H       0      f0     0.0236
   1081 H           -4.0113    12.3641    -3.2215 H       0      f0     0.0230
   1082 C           -3.1971    14.2323    -2.4081 C       0      f0    -0.0119
   1083 H           -2.3442     9.7986    -3.7453 H       0      f0     0.0286
   1084 H           -1.0003    10.7005    -2.7001 H       0      f0     0.0264
   1085 C           -0.8088    13.8246    -3.5839 C       0      f0     0.0049
   1086 C           -0.4703    13.1763    -6.2097 C      35     f35    -0.0017
   1087 C           -0.4359    10.5001    -6.3176 C      35     f35    -0.0102
   1088 C           -0.3113    11.7750    -5.7386 C      35     f35     0.0009
   1089 C            0.0333    12.7354    -3.4106 C       0      f0    -0.0024
   1090 C            0.4846    11.7075    -4.3653 C      35     f35     0.0048
   1091 C            0.6951    13.8613    -5.7296 C      35     f35    -0.0027
   1092 C            2.0202    12.1343    -4.8584 C      35     f35    -0.0005
   1093 C            2.0765    13.3836    -5.3705 C      35     f35     0.0016
   1094 H            3.1251    11.5635    -4.6371 H       0      f0     0.0979
   1095 C            3.2183   -14.1149    -5.7923 C       0      f0    -0.0173
   1096 C            4.4212    13.6255    -5.6920 C       0      f0     0.0054
   1097 C            4.3657    11.0392    -2.7145 C       0      f0    -0.0431
   1098 C            5.4725    12.8028    -5.7083 C       0      f0     0.0013
   1099 C            6.2384    10.5450    -6.0178 C       0      f0     0.0155
   1100 C            6.7402    13.2691    -4.9768 C       0      f0    -0.0034
   1101 C            6.6280    12.2276    -2.6842 C      36     f36    -0.0178
   1102 C            6.9475    10.6648    -4.8537 C       0      f0    -0.0167
   1103 C            6.8531    12.0529    -4.1885 C       0      f0     0.0002
   1104 H            7.3011    11.5126    -2.1908 H       0      f0     0.0279
   1105 H            8.8778    12.5883    -4.8317 H       0      f0     0.0200
   1106 C            9.3875    12.7092    -5.7962 C      32     f32    -0.0152
   1107 C            9.5874    10.2278    -5.8400 C      32     f32     0.0226
   1108 H            9.9037    13.5220    -3.0593 H       0      f0     0.0216
   1109 C           10.4151    10.4861    -4.6014 C      32     f32    -0.0330
   1110 C           10.5827    12.7637    -5.1161 C      32     f32    -0.0038
   1111 C           10.7707    11.8811    -4.1240 C      32     f32     0.0023
   1112 C           10.8308    11.5608    -2.7426 C      32     f32    -0.0552
   1113 C           11.4249    13.8053    -5.3211 C       0      f0    -0.0067
   1114 C           12.2686    10.9103    -5.6730 C       5      f5     0.0161
   1115 H           12.2046    13.2198    -2.1729 H       0      f0     0.0231
   1116 C           12.7543    13.5042    -5.1015 C       5      f5     0.0015
   1117 C           12.9864    12.0435    -5.0071 C       5      f5    -0.0067
   1118 C           14.2477    11.7782    -4.2247 C       5      f5    -0.0029
   1119 C           14.3363    13.2867    -3.5940 C       5      f5    -0.0022
   1120 C           14.5141    10.3936    -4.0272 C       5      f5    -0.0068
   1121 C           15.1466    13.4416    -2.3347 C       0      f0    -0.0044
   1122 C          -15.1326   -10.1789    -1.8261 C       0      f0    -0.0684
   1123 H          -14.5515   -13.0926    -1.7337 H       0      f0     0.0336
   1124 C          -13.9830   -11.6554     1.3407 C       0      f0    -0.0018
   1125 C          -13.3273   -11.9240     0.3367 C       0      f0    -0.0068
   1126 H          -13.0830   -13.5912     1.2103 H       0      f0     0.0200
   1127 C          -12.5960   -11.0582    -1.8562 C       1      f1    -0.0015
   1128 C          -12.5008   -12.1013    -0.8400 C       0      f0    -0.0222
   1129 H          -11.7972   -13.1491    -0.7773 H       0      f0     0.0147
   1130 H          -11.6930   -10.3519     0.1507 H       0      f0     0.0194
   1131 H           -9.6168   -11.5449    -1.0993 H       0      f0     0.0215
   1132 H          -10.0189   -10.8544     0.8155 H       0      f0     0.0230
   1133 C           -9.5313   -11.3973     0.0240 C       0      f0    -0.0461
   1134 H           -9.8839   -13.8292    -0.0322 H       0      f0     0.0227
   1135 C           -8.5973   -12.0535     0.5584 C       0      f0     0.0065
   1136 C           -7.8644   -12.7359    -2.0642 C       0      f0    -0.0065
   1137 H           -7.6448   -10.5005    -1.5344 H       0      f0     0.0239
   1138 C           -7.7988   -12.6111     1.5018 C       0      f0    -0.0254
   1139 C           -6.9612   -13.7642     1.0521 C       0      f0     0.0035
   1140 C           -6.8226   -13.0335    -1.1967 C       0      f0    -0.0011
   1141 H           -6.0634   -10.7072     2.1612 H       0      f0     0.0211
   1142 C           -6.5256   -14.1767    -0.3137 C       0      f0    -0.0075
   1143 C           -5.9307   -10.5946     1.1610 C       0      f0    -0.0548
   1144 C           -5.9671   -11.4035     0.1500 C       0      f0     0.0072
   1145 C           -5.7249   -12.0657    -1.0468 C       0      f0    -0.0288
   1146 H           -4.7341   -12.4947    -1.2961 H       0      f0     0.0186
   1147 H           -5.0852   -12.4088     1.6124 H       0      f0     0.0189
   1148 H           -2.8991   -12.3994    -1.4745 H       0      f0     0.0260
   1149 C           -2.8685   -12.9203    -0.5262 C       0      f0    -0.0561
   1150 H           -2.9232   -11.4471     1.1755 H       0      f0     0.0215
   1151 C           -2.3864   -12.4338     0.8127 C       0      f0    -0.0637
   1152 C           -2.1985   -14.2229    -0.4359 C       0      f0     0.1801
   1153 H           -1.9964   -10.8809     0.0216 H       0      f0     0.0481
   1154 C           -1.2905   -13.2874     1.2413 C       0      f0     0.2106
   1155 H            1.4716    14.0890     0.0569 H       0      f0     0.0680
   1156 C            2.3288   -13.6461    -0.2585 C       0      f0    -0.0100
   1157 C            2.8445   -13.3035    -1.6198 C      36     f36     0.0080
   1158 H            3.1533   -11.1989     2.0573 H       0      f0     0.0318
   1159 C            4.0436   -12.3915    -1.4955 C      36     f36    -0.0051
   1160 C            4.2132   -11.0587    -1.6900 C       0      f0    -0.0054
   1161 C            4.3264   -13.5715     1.7170 C       0      f0    -0.0047
   1162 C            5.1539   -13.1484    -0.7173 C      36     f36    -0.0065
   1163 C            5.7613   -13.5960     1.5686 C       0      f0    -0.0064
   1164 C            6.2398   -13.1848     0.2253 C       0      f0    -0.0075
   1165 C            7.7125   -12.6767     0.0132 C       0      f0    -0.0012
   1166 C            8.2301   -11.9605    -1.1464 C       0      f0    -0.0245
   1167 C            8.0104   -10.5861    -0.7241 C       0      f0    -0.0004
   1168 C            8.2300   -14.0288     2.1415 C       0      f0     0.0041
   1169 H            8.4528   -12.3046    -2.0762 H       0      f0     0.0157
   1170 C            8.5160   -13.4771     0.8487 C       0      f0    -0.0007
   1171 C           10.0180   -13.2098     0.2347 C       0      f0    -0.0030
   1172 C           10.3758   -11.3383     1.2832 C       0      f0     0.0152
   1173 H           10.3126   -11.8184    -1.7980 H       0      f0     0.0379
   1174 C           10.6006    14.2254    -0.8610 C       0      f0     0.0128
   1175 C           11.0651   -12.3771     0.6911 C       0      f0     0.0321
   1176 C           12.6453   -12.3301     0.9641 C       0      f0     0.0130
   1177 C           12.7056   -13.8021     1.4398 C       0      f0     0.0180
   1178 C           13.0512   -11.6288     2.2992 C       0      f0     0.0144
   1179 H           13.4789   -12.5166     0.1704 H       0      f0     0.0792
   1180 O           13.2377   -11.2490    -1.2243 O       0      f0    -0.4661
   1181 H           13.7907   -13.1982    -1.6178 H       0      f0     0.0774
   1182 C           14.8723   -13.5862    -1.9737 C       0      f0    -0.0545
   1183 H          -13.3556    -7.5443    -1.8534 H       0      f0     0.0200
   1184 H          -13.5354    -8.5625    -0.4267 H       0      f0     0.0167
   1185 C          -13.2425    -7.5516     0.0003 C       0      f0    -0.0131
   1186 C          -13.4354    -6.6742    -1.1918 C       0      f0    -0.0149
   1187 C          -12.7700    -6.9217     1.1824 C       0      f0    -0.0135
   1188 C          -11.5776    -9.3257     2.0305 C       0      f0     0.0005
   1189 C          -11.3566    -6.6819     1.1441 C       0      f0    -0.0025
   1190 C          -11.4118    -9.4106     0.6789 C       0      f0    -0.0265
   1191 C          -10.9443    -8.3529    -0.4164 C      11     f11     0.0021
   1192 C          -10.6051    -6.8837    -0.0744 C      11     f11    -0.0008
   1193 H           -9.7298    -9.2898    -1.8416 H       0      f0     0.0278
   1194 C           -9.7739    -8.5233    -1.2061 C      11     f11    -0.0239
   1195 C           -9.4300    -6.1970    -0.5178 C      11     f11    -0.0051
   1196 C           -9.0605    -7.2501    -1.5516 C      11     f11     0.0104
   1197 C           -7.6268    -7.0570    -2.0243 C      11     f11     0.0349
   1198 H           -5.5964    -9.6509     1.0586 H       0      f0     0.0196
   1199 H           -4.7009    -7.4198    -0.2141 H       0      f0     0.0648
   1200 C           -4.6708    -7.3872     0.9366 C       0      f0    -0.0347
   1201 C           -3.8126    -7.0196    -2.3798 C      45     f45     0.2768
   1202 H           -3.3239   -10.7097    -0.6045 H       0      f0     0.0266
   1203 C           -3.3884    -7.6981     1.4383 C       0      f0     0.0010
   1204 H           -2.9510    -9.7449     1.0191 H       0      f0     0.0147
   1205 C           -2.6093    -9.9953     0.0015 C       0      f0    -0.0899
   1206 C           -2.1825    -7.6349     0.5438 C       0      f0    -0.0490
   1207 C           -1.9981    -8.6138    -0.3207 C       0      f0     0.2249
   1208 C           -1.0959    -6.6472     0.4404 C       0      f0    -0.0391
   1209 O           -0.7469    -8.5010    -1.2037 O       0      f0    -0.5028
   1210 C           -0.1530    -7.3269    -0.4317 C       0      f0     0.2310
   1211 C            0.8338    -6.4802    -0.5357 C       0      f0    -0.0647
   1212 H            0.9467    -9.0425     0.5371 H       0      f0     0.0478
   1213 C            1.7445    -8.3812     1.0856 C       0      f0    -0.0215
   1214 H            3.0084    -8.4653    -0.8418 H       0      f0     0.0311
   1215 C            3.0659    -8.4261     0.2065 C       0      f0    -0.0145
   1216 C            4.2764    -8.3489     0.9077 C      37     f37     0.0100
   1217 C            4.5393    -9.8725    -1.7728 C       0      f0    -0.0080
   1218 C            4.9533    -8.7545    -1.3295 C       0      f0    -0.0078
   1219 C            5.2856    -8.4386     0.0244 C      37     f37     0.0190
   1220 C            6.6554    -8.5840     0.3184 C      37     f37     0.0046
   1221 C            7.0226    -7.7648     1.5710 C      37     f37     0.0216
   1222 C            7.4853    -9.6030    -0.3312 C       0      f0    -0.0104
   1223 C            8.2637    -7.1739     2.0981 C      37     f37    -0.0039
   1224 H            8.8999    -9.9158     1.8464 H       0      f0     0.0163
   1225 C            9.1758    -6.4518     1.0186 C       0      f0     0.0183
   1226 C            9.8074    -7.4380     0.1954 C       0      f0    -0.0095
   1227 C           10.0677   -10.2715     1.9550 C       0      f0    -0.0103
   1228 C           10.7104    -6.8453    -0.9140 C       0      f0    -0.0068
   1229 H           11.3648    -7.4834     2.1203 H       0      f0     0.0193
   1230 H           10.8970    -9.6952    -1.5414 H       0      f0     0.0399
   1231 C           11.9999    -7.9693    -0.8376 C       0      f0    -0.0164
   1232 H           11.2667    -8.5837    -0.2523 H       0      f0     0.0254
   1233 C           13.3619    -7.4819    -0.2532 C       0      f0     0.0179
   1234 C           14.0539   -10.0320    -1.4398 C       0      f0     0.2620
   1235 C           13.9896    -8.5861    -0.7047 C       0      f0    -0.0529
   1236 H           15.0769    -8.8550    -0.6818 H       0      f0     0.0150
   1237 C          -14.9936    -3.0505     1.3049 C       0      f0    -0.0056
   1238 C          -14.1147    -3.3303    -1.1454 C       0      f0    -0.0029
   1239 C          -13.8589    -2.3925    -2.0583 C       0      f0    -0.0021
   1240 C          -12.9981    -5.4795    -1.1360 C       0      f0     0.0044
   1241 C          -12.7883    -3.9618    -0.9056 C       0      f0    -0.0050
   1242 C          -11.6496    -3.1159    -0.6919 C       0      f0    -0.0031
   1243 C          -11.0354    -2.7242     1.8379 C       0      f0     0.0182
   1244 C          -10.5554    -2.3198    -0.4930 C       0      f0    -0.0182
   1245 C           -9.8661    -3.5553     1.6038 C       0      f0    -0.0042
   1246 C           -9.3114    -3.0387     0.3990 C       0      f0     0.0015
   1247 C           -8.4052    -5.1880    -0.6935 C      11     f11     0.0110
   1248 C           -8.3064    -4.0212     0.2499 C      11     f11    -0.0088
   1249 C           -7.2306    -5.8469    -1.2961 C      11     f11    -0.0437
   1250 C           -6.9017    -3.9929     0.6953 C      11     f11     0.0017
   1251 C           -6.5095    -3.6190     2.0630 C      11     f11     0.0069
   1252 C           -5.9070    -5.5007    -0.9027 C      11     f11     0.2503
   1253 C           -5.9333    -5.0879     0.4942 C      11     f11    -0.0547
   1254 C           -5.2067    -6.0027     1.5258 C      11     f11     0.0203
   1255 O           -4.7082    -6.0345    -1.7264 O       0      f0    -0.5258
   1256 C           -2.5652    -3.8450     1.8029 C      38     f38    -0.0509
   1257 C           -2.3522    -3.3039     0.3973 C      38     f38     0.2184
   1258 C           -1.9962    -4.3842    -0.1451 C      38     f38    -0.0380
   1259 C           -1.6667    -5.4633     0.8783 C      38     f38     0.0260
   1260 C           -1.6717    -4.3335    -1.8665 C       0      f0     0.0002
   1261 C           -0.3412    -3.6677    -1.9332 C       0      f0     0.0286
   1262 C            0.6612    -4.0707    -0.8423 C      16     f16    -0.0089
   1263 C            1.1119    -3.2055     0.0681 C      16     f16     0.0028
   1264 C            1.5923    -5.2689    -0.8641 C      16     f16     0.0234
   1265 C            2.1683    -3.3865     1.1315 C      16     f16    -0.0096
   1266 C            3.1109    -4.9987    -0.3468 C      16     f16    -0.0622
   1267 C            3.0364    -4.4373     1.0247 C      16     f16     0.0358
   1268 C            4.0631    -4.7598     2.1275 C      16     f16    -0.0624
   1269 C            4.4013    -5.2684    -0.8186 C      16     f16     0.2163
   1270 C            5.3159    -5.1028     1.6058 C      16     f16     0.2162
   1271 O            5.6969    -5.2533     0.1076 O      16     f16    -0.4759
   1272 H            6.7828    -2.6928     0.6160 H       0      f0     0.0491
   1273 C           10.4389    -5.9238    -1.5752 C       0      f0     0.0069
   1274 H           11.8438    -2.4393    -0.0423 H       0      f0     0.0192
   1275 H           12.0509    -5.3052     0.6265 H       0      f0     0.0207
   1276 H           12.3342    -3.5226    -1.7321 H       0      f0     0.0225
   1277 C           12.3873    -2.6848    -1.1310 C       0      f0    -0.0380
   1278 C           12.9789    -5.6454     1.0143 C       0      f0    -0.0207
   1279 C           14.0055    -5.8821    -0.0191 C       0      f0     0.0005
   1280 C           13.8097    -2.3727    -0.7157 C       0      f0     0.0043
   1281 C           14.8092    -4.9515    -0.6694 C       0      f0     0.0008
   1282 C           14.8768    -3.3575    -0.3336 C       0      f0    -0.0061
   1283 C          -14.0723    -2.0183     1.9062 C       0      f0     0.0104
   1284 H          -13.3241    -0.1321     0.6527 H       0      f0     0.0325
   1285 C          -13.0657    -1.2003     0.9479 C       0      f0    -0.0421
   1286 H          -13.4168    -1.9373     0.2079 H       0      f0     0.0265
   1287 H          -12.5663     0.6126     2.7529 H       0      f0     0.0175
   1288 C          -11.5702    -1.2807     1.4550 C       0      f0    -0.0045
   1289 C          -11.2140     1.0732     0.7969 C       0      f0     0.0277
   1290 C          -10.6323    -0.2878     0.6956 C       0      f0    -0.0151
   1291 H          -10.3498    -1.6211    -1.3786 H       0      f0     0.0135
   1292 C           -9.9104     1.7855    -0.9021 C       0      f0    -0.0091
   1293 H           -9.5571     0.6573    -0.8007 H       0      f0     0.0178
   1294 C           -9.2486    -0.4845     1.1233 C       0      f0     0.0175
   1295 C           -7.8849    -0.2562     1.4658 C       0      f0    -0.0180
   1296 C           -6.7500     0.4628     0.6301 C       0      f0    -0.0057
   1297 C           -6.1016     1.5531     1.4774 C       0      f0    -0.0064
   1298 C           -5.9830     0.0651    -0.2453 C       0      f0    -0.0118
   1299 C           -5.3740    -0.7105    -1.2748 C       0      f0    -0.0030
   1300 H           -5.4170    -1.7992    -0.9531 H       0      f0     0.0376
   1301 H           -3.7435    -0.0256     0.5506 H       0      f0    -0.0084
   1302 C           -3.7514     1.8507    -0.8865 C       0      f0    -0.0051
   1303 C           -3.8150    -1.5111     2.0143 C      38     f38    -0.0667
   1304 C           -3.4806     1.0916    -1.6156 C       0      f0     0.0117
   1305 C           -3.3438    -1.1178     0.7134 C      38     f38     0.2265
   1306 O           -2.5046    -1.8667    -0.2776 O      38     f38    -0.4971
   1307 H           -1.4053     1.2082     1.4527 H       0      f0     0.0457
   1308 H           -0.2684    -1.5841    -0.3719 H       0      f0     0.0951
   1309 C            0.2030    -2.1016     0.3985 C      16     f16    -0.0575
   1310 C            0.9080    -1.5004     1.4881 C      16     f16     0.2116
   1311 C            3.9529     2.0054    -1.9499 C      18     f18    -0.0022
   1312 H            3.6886     1.3043     0.1392 H       0      f0     0.0289
   1313 C            4.3227     1.0668    -0.8892 C       0      f0    -0.0156
   1314 C            5.0871    -0.0590    -1.2832 C       0      f0    -0.0008
   1315 H            5.3979    -1.4852     0.8683 H       0      f0     0.0291
   1316 C            5.7036     1.9918     1.2193 C       0      f0     0.0008
   1317 C            5.8001    -1.0046    -1.7464 C       0      f0    -0.0011
   1318 C            6.4999    -1.5191     0.7296 C       0      f0    -0.0384
   1319 C            6.7522    -1.1997    -0.8167 C       0      f0    -0.0143
   1320 C            7.0507     1.6550     0.3528 C       0      f0    -0.0216
   1321 H            6.7569     0.9594    -0.4182 H       0      f0     0.0145
   1322 C            7.2599    -0.7398     1.9083 C       0      f0     0.0130
   1323 H            7.8516    -0.9143    -0.5561 H       0      f0     0.0257
   1324 C            8.0164     1.4106     1.0385 C       0      f0     0.0083
   1325 C            8.7156    -0.8403     1.8995 C       7      f7    -0.0206
   1326 H            9.1918    -1.4402     1.1559 H       0      f0     0.0202
   1327 C            9.2957     0.7540     1.6817 C       7      f7    -0.0192
   1328 H           10.1922     0.9231     1.1623 H       0      f0     0.0206
   1329 H           11.6876     1.7369     0.1180 H       0      f0     0.0199
   1330 C           12.0141    -1.2837    -1.9075 C       0      f0     0.0049
   1331 H           13.3713     0.1069    -0.1949 H       0      f0     0.0184
   1332 C           14.1996    -0.8201    -0.6480 C       0      f0    -0.0355
   1333 H           14.9302    -0.3470    -0.2972 H       0      f0     0.0272
   1334 H          -15.1292     4.7956    -0.7508 H       0      f0     0.0602
   1335 C          -14.9870     5.5188    -1.5887 C       0      f0    -0.0174
   1336 O          -13.0278     3.5977     0.4232 O       0      f0    -0.4677
   1337 H          -11.6240     5.3051    -1.2904 H       0      f0     0.0465
   1338 C          -11.7875     3.5558     0.0449 C       0      f0     0.3182
   1339 C          -10.9959     4.7961    -0.6307 C       0      f0    -0.0952
   1340 C          -10.9663     2.3427     0.1471 C       0      f0    -0.0541
   1341 H          -10.7117     5.3930     0.1413 H       0      f0     0.0367
   1342 C           -9.9282     4.0587    -1.5536 C       0      f0     0.0095
   1343 C           -8.9425     4.7724    -1.9548 C       0      f0    -0.0041
   1344 H           -8.7112     1.9349     1.9773 H       0      f0     0.0214
   1345 C           -8.1467     3.0796     2.0147 C       0      f0    -0.0133
   1346 H           -6.7522     5.7053    -1.7789 H       0      f0     0.0166
   1347 C           -6.6506     5.4789     0.1723 C       0      f0     0.0005
   1348 C           -6.6951     2.7301     2.3484 C       0      f0    -0.0025
   1349 C           -6.1060     2.9199    -1.7745 C       0      f0    -0.0064
   1350 C           -5.5119     4.8534     0.1571 C       0      f0    -0.0079
   1351 C           -5.4795     3.5444    -0.8009 C       0      f0    -0.0037
   1352 C           -4.2568     2.7876    -0.1545 C       0      f0     0.0006
   1353 C           -4.3588     4.3832     1.1844 C       0      f0    -0.0006
   1354 C           -3.5702     3.3215     0.7628 C       0      f0    -0.0056
   1355 C           -3.5903     5.6659     1.7335 C       0      f0    -0.0041
   1356 C           -2.0590     5.4994     1.8495 C       0      f0    -0.0037
   1357 C           -1.2387     3.7054    -1.3164 C       0      f0    -0.0133
   1358 H           -0.6145     4.3537    -0.5937 H       0      f0     0.0149
   1359 C           -0.8093     5.6252     1.9587 C       0      f0    -0.0255
   1360 C           -0.2871     2.9945     1.9904 C       0      f0     0.0216
   1361 C           -0.5711     2.4464    -1.5869 C       0      f0    -0.0466
   1362 C            0.1461     4.1885     2.0833 C       0      f0    -0.0008
   1363 H            0.4151     1.3140     0.2055 H       0      f0     0.0751
   1364 C            0.8222     2.1102    -0.6781 C       0      f0    -0.0149
   1365 C            1.4963     3.6847     1.7139 C       0      f0    -0.0168
   1366 H            1.4444     2.7352     1.1536 H       0      f0     0.0399
   1367 C            1.8767     2.1589    -1.3900 C       0      f0     0.0060
   1368 C            2.7691     4.2774     2.1670 C      12     f12     0.0079
   1369 C            3.9957     3.4334     1.9757 C      12     f12     0.0028
   1370 C            5.0276     3.3854     1.0589 C      12     f12    -0.0090
   1371 H            5.1766     5.9118    -0.2684 H       0      f0     0.0186
   1372 C            6.0076     4.3886     1.2516 C      12     f12     0.0045
   1373 C            6.2308     5.4904     0.0365 C       0      f0    -0.0374
   1374 C            7.2888     4.0940    -1.8493 C       0      f0    -0.0774
   1375 C            7.3305     4.6690    -0.5446 C       0      f0     0.0082
   1376 C            8.5048     3.2275    -1.7588 C       0      f0     0.2740
   1377 C            8.7148     4.4628    -0.0792 C       0      f0    -0.0061
   1378 C            9.2759     5.0116     1.2372 C       0      f0    -0.0007
   1379 C            9.4056     3.4704    -0.6837 C       0      f0    -0.0716
   1380 H           10.1751     2.9899    -0.4468 H       0      f0     0.0499
   1381 C           12.2039     2.4618     0.8093 C       7      f7    -0.0245
   1382 C           12.7984     4.6526     1.0078 C       7      f7    -0.0142
   1383 C           12.8703     3.5573     0.1110 C       7      f7     0.0131
   1384 H           12.9234     5.8432     0.6196 H       0      f0     0.0276
   1385 C           13.7729     3.0756    -1.0625 C       0      f0    -0.0273
   1386 H           14.5645     2.5308    -0.7603 H       0      f0     0.0479
   1387 H          -12.2763     7.0104    -1.7315 H       0      f0     0.0265
   1388 H          -11.3158     8.2871     0.0010 H       0      f0     0.0215
   1389 C          -10.5106     9.9904     1.4730 C       0      f0    -0.0239
   1390 C          -10.2716     8.4317    -0.4381 C      34     f34    -0.0354
   1391 C          -10.0685     8.6535    -2.0009 C      34     f34    -0.0044
   1392 H           -9.5359     7.5941    -0.0997 H       0      f0     0.0178
   1393 C           -9.6963     9.7635     0.3343 C      34     f34     0.0115
   1394 H           -8.7417     6.1634     0.6063 H       0      f0     0.0204
   1395 H           -8.4548     7.4595    -2.0119 H       0      f0     0.0191
   1396 C           -7.8133     6.3776     0.3078 C       0      f0    -0.0236
   1397 C           -7.1673     7.6861     0.9183 C       0      f0    -0.0087
   1398 H           -5.1349     8.9745    -1.0125 H       0      f0     0.0158
   1399 H           -5.2728     7.1217     1.4887 H       0      f0     0.0229
   1400 C           -4.2060     9.3786    -1.7034 C       8      f8    -0.0273
   1401 H           -3.4727     9.6481     1.9222 H       0      f0     0.0171
   1402 H           -3.2733     6.1724    -0.9478 H       0      f0     0.0172
   1403 H           -3.0389     9.0577    -1.2854 H       0      f0     0.0102
   1404 C           -2.9594     6.3169    -2.0261 C       8      f8    -0.0358
   1405 H           -2.2009     7.1387    -1.9700 H       0      f0     0.0136
   1406 H           -0.5169     6.7084     2.2084 H       0      f0     0.0126
   1407 H            1.3272     9.9945     1.7990 H       0      f0     0.0158
   1408 H            1.5575     9.7496    -1.6719 H       0      f0     0.0249
   1409 H            3.5834     9.7936     0.7113 H       0      f0     0.0158
   1410 C            4.1126     6.4149    -1.5484 C      33     f33    -0.0302
   1411 H            3.6677     6.4979    -0.5224 H       0      f0     0.0114
   1412 C            4.7343     8.8539    -2.1765 C      33     f33    -0.0743
   1413 C            5.6304    10.2110     0.0002 C      39     f39    -0.0042
   1414 C            5.7470     9.3996    -1.3333 C      39     f39     0.0091
   1415 H            6.9007     6.3493     0.2592 H       0      f0     0.0187
   1416 C            6.9767     8.8152    -1.4311 C      39     f39    -0.0162
   1417 C            7.7219     8.7568    -0.1013 C      39     f39     0.0260
   1418 C            7.6409     9.6362     1.0506 C      39     f39    -0.0056
   1419 H            8.3406     9.5977     2.1016 H       0      f0     0.0276
   1420 C            8.5712     7.4573     0.0144 C       0      f0     0.0290
   1421 C            9.2957     7.4772    -1.5781 C       0      f0    -0.0654
   1422 C            9.3414     6.4656     0.6777 C       0      f0     0.0003
   1423 C           10.6361     6.8226     1.5464 C       0      f0     0.0172
   1424 O           10.7447     9.5883    -1.0532 O       0      f0    -0.6657
   1425 H           11.4330    10.0020    -0.7545 H       0      f0     0.3211
   1426 C           12.9120     9.7216     1.7023 C       5      f5    -0.0202
   1427 C           13.1441     9.0980     0.6803 C       5      f5     0.0198
   1428 C           13.8049     9.1487    -0.4832 C       5      f5     0.0018
   1429 C           14.3087     7.9336    -1.5184 C       5      f5     0.0056
   1430 C           14.8619     6.6346    -1.4068 C       0      f0     0.0018
   1431 C          -14.7391    11.4161     1.4921 C       0      f0    -0.0005
   1432 C          -14.8654    12.3506    -1.4981 C       0      f0    -0.0087
   1433 C          -13.9402    12.7220    -0.4456 C       0      f0     0.0033
   1434 C          -13.7581    11.9720     0.8081 C       0      f0    -0.0220
   1435 H          -12.9217    14.0169    -1.6871 H       0      f0     0.0194
   1436 C          -12.7006    13.3291    -0.9563 C       0      f0    -0.0247
   1437 H          -12.6398    11.8462     0.8942 H       0      f0     0.0239
   1438 C          -11.5388    13.5237    -0.1715 C       0      f0     0.0002
   1439 H          -10.9010   -13.7787    -2.0928 H       0      f0     0.0170
   1440 C          -10.4886    13.6475     1.9120 C       3      f3     0.0012
   1441 H          -10.2637    10.8681     2.0411 H       0      f0     0.0235
   1442 C          -10.4645    13.8615     0.3855 C       0      f0    -0.0189
   1443 C           -8.4994    10.3090    -0.1119 C      34     f34    -0.0290
   1444 C           -8.4883    10.5031    -1.6004 C      34     f34     0.0013
   1445 H           -7.9946    11.8376     1.6724 H       0      f0     0.0176
   1446 H           -7.7249    10.7781     0.2592 H       0      f0     0.0206
   1447 C           -6.8589    13.4313     1.6745 C       0      f0     0.0004
   1448 C           -6.4674    12.4113    -1.8567 C       0      f0    -0.0167
   1449 C           -6.0312    12.8833    -0.4760 C       0      f0    -0.0001
   1450 H           -5.3822    11.0403     0.8708 H       0      f0     0.0170
   1451 C           -5.4221    13.1970     1.9634 C       0      f0     0.0020
   1452 C           -5.3029    12.1485     0.6501 C       0      f0    -0.0351
   1453 H           -4.1288    12.1486     0.5682 H       0      f0     0.0249
   1454 C           -3.9912    10.8451    -2.0322 C       8      f8    -0.0014
   1455 H           -3.8487    13.8135     1.3009 H       0      f0     0.0325
   1456 C           -2.9017    11.8493    -1.3894 C       0      f0     0.0066
   1457 C           -2.7717    13.3724    -1.5022 C       0      f0    -0.0277
   1458 H           -2.8124    10.1933    -0.0420 H       0      f0     0.0110
   1459 C           -2.1371    10.9714    -0.3611 C       0      f0    -0.0158
   1460 O           -0.9950    13.7920     0.6062 O       0      f0    -0.4592
   1461 C           -0.7220    11.0791     0.2097 C       0      f0     0.0460
   1462 C           -0.7318    10.9574     1.8664 C       0      f0     0.0223
   1463 C            0.3723    10.8727    -0.7123 C       0      f0    -0.0048
   1464 C            0.5289    10.6396     2.3784 C       0      f0    -0.0301
   1465 C            1.0701    12.2585    -2.1572 C       0      f0     0.0199
   1466 C            1.2556    10.8460    -1.5339 C       0      f0    -0.0116
   1467 C            2.0983    12.9807    -1.9272 C       0      f0    -0.0009
   1468 C            2.7882    12.8079     1.3416 C       0      f0     0.0471
   1469 C            2.9924    11.4492     2.0505 C       0      f0     0.0027
   1470 C            3.1406    13.8210    -2.0928 C      36     f36    -0.0034
   1471 C            3.1751    14.1244     0.7846 C       0      f0     0.0126
   1472 H            3.9604    11.5441    -0.5109 H       0      f0     0.0207
   1473 C            4.2884    10.6579     0.5247 C      39     f39    -0.0302
   1474 C            4.6489    13.3360    -2.0042 C      36     f36    -0.0056
   1475 C            4.3896    11.6349     1.8575 C      39     f39     0.0013
   1476 C            5.1221    12.0145    -2.2324 C      36     f36     0.0109
   1477 C            5.7139    14.0600    -1.4352 C      36     f36    -0.0030
   1478 C            6.4248    10.3654     1.1884 C      39     f39    -0.0029
   1479 C            7.0174    13.5515    -1.9447 C      36     f36    -0.0344
   1480 H            7.5861    13.6389    -0.9602 H       0      f0     0.0241
   1481 C           11.6146    13.4245    -0.5048 C       0      f0    -0.0023
   1482 C           11.8559    12.1874    -1.7022 C       0      f0    -0.0180
   1483 H           12.6793    11.5751    -1.8701 H       0      f0     0.0166
   1484 C           12.1899    13.5413     0.8352 C       0      f0    -0.0021
   1485 C           12.3123    12.3931     1.8476 C       0      f0     0.0054
   1486 C           13.1060    11.3946     1.4452 C       5      f5    -0.0061
   1487 C           14.2162    11.5810     0.4470 C       5      f5    -0.0171
   1488 C           14.3048    10.3844    -0.7061 C       5      f5    -0.0084
   1489 H           13.8585    12.4104    -0.2345 H       0      f0     0.0192
   1490 C           14.9236    10.9633    -1.6468 C       5      f5    -0.0022
   1491 C          -14.6369   -12.9447     3.8940 C       0      f0    -0.0076
   1492 C          -13.8934   -14.0719     3.3524 C       3      f3     0.0014
   1493 C          -13.8891   -11.7129     3.8202 C       0      f0     0.0039
   1494 C          -13.8665   -11.0696     2.5352 C       0      f0    -0.0062
   1495 H          -13.6639   -10.8899     5.7365 H       0      f0     0.0274
   1496 H          -12.1130   -12.1321     5.4346 H       0      f0     0.0184
   1497 C          -12.9398   -11.3852     5.0180 C       0      f0    -0.0328
   1498 C          -12.8603   -14.0037     2.3374 C       3      f3    -0.0197
   1499 C          -12.5334   -10.2363     2.9064 C       0      f0    -0.0023
   1500 C          -12.1726   -10.4456     4.1551 C       0      f0    -0.0175
   1501 H          -10.4268   -12.1481     6.0363 H       0      f0     0.0185
   1502 C           -9.3409   -12.3197     6.2685 C       0      f0    -0.0161
   1503 C           -8.2913   -10.6179     4.7844 C       0      f0    -0.0352
   1504 H           -8.2699   -12.3764     2.4393 H       0      f0     0.0188
   1505 H           -8.2419   -11.0413     3.7856 H       0      f0     0.0180
   1506 C           -8.1183   -11.8507     5.8190 C       0      f0     0.0081
   1507 C           -6.9178   -12.5391     5.8998 C      13     f13    -0.0060
   1508 C           -6.9177   -13.8445     6.4730 C      13     f13     0.0056
   1509 C           -5.3319   -12.3057     5.7749 C      13     f13    -0.0026
   1510 C           -4.6362   -13.0861     2.4166 C       0      f0    -0.0132
   1511 C           -4.4811   -12.4281     3.5469 C       0      f0    -0.0097
   1512 C           -4.2022   -12.1250     4.9341 C       0      f0    -0.0047
   1513 C           -2.8053   -12.5965     5.5062 C       0      f0    -0.0140
   1514 C           -2.8116   -13.8956     5.7852 C       0      f0    -0.0118
   1515 H           -2.0773   -11.9364     6.0566 H       0      f0     0.0189
   1516 C           -0.4476   -13.0200     2.4156 C       0      f0    -0.0408
   1517 C           -0.3559   -10.4344     2.7399 C       0      f0    -0.0171
   1518 C           -0.3670   -11.7784     2.6101 C       0      f0     0.0099
   1519 C            0.4349   -13.0781     6.0099 C       0      f0     0.0054
   1520 H            0.3193   -13.8708     2.9396 H       0      f0     0.1099
   1521 C            1.1649   -10.5917     5.5104 C       0      f0    -0.0245
   1522 C            1.2751   -11.9770     5.4382 C       0      f0    -0.0147
   1523 H            1.8845   -12.2368     4.4726 H       0      f0     0.0610
   1524 C            3.2272   -10.5937     4.2154 C       0      f0    -0.0014
   1525 C            3.6727   -11.5720     2.8482 C       0      f0    -0.0414
   1526 C            4.0935   -12.9518     2.7260 C       0      f0     0.0631
   1527 C            4.4547   -13.3245     4.0590 C       0      f0    -0.0958
   1528 H            4.6956   -11.3204     2.7208 H       0      f0     0.0145
   1529 H            5.1941   -12.9460     4.7105 H       0      f0     0.0320
   1530 C            7.0249   -13.2594     3.9047 C       0      f0     0.0041
   1531 C            6.8582   -13.8654     2.5614 C       0      f0    -0.0045
   1532 H            6.4741   -11.1030     3.7842 H       0      f0     0.0147
   1533 C            7.2497   -11.7922     4.0382 C       0      f0    -0.0269
   1534 C            7.4475   -13.8759     5.1888 C       0      f0    -0.0103
   1535 C            8.2117   -13.1382     6.2802 C       0      f0     0.0135
   1536 C            8.3010   -11.1899     4.7074 C       0      f0     0.0230
   1537 C            9.0966   -12.2072     5.6764 C       0      f0     0.0178
   1538 C           10.4558   -12.8020     5.3604 C       0      f0     0.1078
   1539 O           11.5506   -13.2480     4.1371 O       0      f0    -0.4460
   1540 C           11.5487   -13.5496     5.5756 C       0      f0     0.2124
   1541 C           12.4102   -10.4069     2.5448 C       0      f0     0.0188
   1542 C           13.6785   -12.7768     3.1102 C       0      f0     0.0719
   1543 C           13.6466   -13.9716     2.3606 C       0      f0    -0.0182
   1544 C           14.1627   -12.8496     5.8026 C       3      f3     0.2730
   1545 C           14.2503   -12.3815     4.3434 C       0      f0    -0.0527
   1546 H           13.9505   -11.3585     4.1686 H       0      f0     0.0503
   1547 C           14.9378   -13.8421     5.9517 C       3      f3    -0.0743
   1548 C          -14.9089    -8.3969     5.3107 C       0      f0    -0.0231
   1549 H          -14.6801    -9.4166     5.4838 H       0      f0     0.0296
   1550 C          -13.6546    -7.6099     4.9349 C       9      f9     0.0000
   1551 H          -13.2987    -6.7071     2.1662 H       0      f0     0.0202
   1552 C          -12.4398    -7.9355     5.4589 C       9      f9    -0.0557
   1553 H          -12.3349    -8.9600     5.8761 H       0      f0     0.0387
   1554 C          -11.5096    -6.8049     5.3991 C       9      f9     0.2372
   1555 H          -11.1761   -10.1222     4.4600 H       0      f0     0.0204
   1556 C          -10.7415    -8.4376     2.8500 C       0      f0    -0.0242
   1557 C          -10.6129    -7.0830     2.3546 C       0      f0     0.0010
   1558 H          -10.2427    -8.6442     3.8720 H       0      f0     0.0372
   1559 O          -10.1762    -6.9747     6.1172 O       9      f9    -0.4937
   1560 C           -9.4362    -6.2140     2.8508 C       0      f0     0.0053
   1561 H           -9.1339    -9.8539     4.8129 H       0      f0     0.0340
   1562 H           -7.5617    -7.9832     3.9438 H       0      f0     0.0287
   1563 C           -6.9592    -9.8182     5.0895 C       0      f0     0.0133
   1564 C           -6.7687    -8.5419     4.4761 C       0      f0    -0.0179
   1565 C           -6.2758    -9.8820     6.3350 C       0      f0    -0.0164
   1566 C           -5.6666    -6.2704     4.1950 C       0      f0    -0.0024
   1567 C           -5.7078    -7.6827     4.7016 C       0      f0     0.0046
   1568 C           -4.5676    -8.1328     5.5711 C       0      f0    -0.0024
   1569 C           -3.2559    -7.8232     5.7386 C       0      f0    -0.0074
   1570 C           -1.8703    -7.4172     6.0023 C       0      f0    -0.0081
   1571 H           -1.4096   -10.2245     2.4628 H       0      f0     0.0164
   1572 C           -1.0568    -6.6171     4.9796 C       0      f0    -0.0030
   1573 H            0.2329   -10.4822     5.9302 H       0      f0     0.0181
   1574 C            0.9354    -9.6017     3.1999 C       0      f0     0.0003
   1575 H            1.1868    -7.9629     5.3547 H       0      f0     0.0226
   1576 C            1.3099    -6.0773     4.5129 C       0      f0     0.0022
   1577 C            1.5193    -8.8571     2.2381 C       0      f0    -0.0057
   1578 C            1.8365    -7.2081     5.1370 C       0      f0    -0.0187
   1579 C            1.9199   -10.0039     4.3917 C       0      f0    -0.0043
   1580 C            3.2956    -7.6105     5.0392 C       0      f0    -0.0011
   1581 C            3.8539    -8.9385     5.7769 C       0      f0    -0.0223
   1582 H            4.0595    -7.0424     2.2335 H       0      f0     0.0304
   1583 H            3.8353    -8.6717     2.9414 H       0      f0     0.0238
   1584 C            4.0633    -6.4116     5.3950 C       0      f0    -0.0084
   1585 C            4.3679   -10.0739     5.0131 C       0      f0    -0.0212
   1586 C            4.4689    -8.0345     2.3885 C      37     f37    -0.0420
   1587 H            5.4104    -9.8257     4.5873 H       0      f0     0.0121
   1588 C            5.9540    -7.6810     2.5910 C      37     f37     0.0027
   1589 C            6.7912    -7.6730     3.7481 C      37     f37    -0.0352
   1590 H            5.9491    -7.7682     4.3771 H       0      f0     0.0198
   1591 C            7.9762    -6.8882     3.4499 C      37     f37     0.0031
   1592 H            7.9297    -8.6599     6.0379 H       0      f0     0.0159
   1593 H            8.2564    -9.0631     4.0870 H       0      f0     0.0187
   1594 C            8.5482    -9.8250     4.6539 C       0      f0    -0.0200
   1595 C            9.0556    -8.8485     5.7001 C       0      f0     0.0122
   1596 C            9.0805    -6.5635     4.3120 C       0      f0    -0.0103
   1597 C           10.1790    -8.1363     6.1374 C       0      f0     0.0041
   1598 C           10.1138    -7.4580     3.8586 C       0      f0    -0.0049
   1599 C           11.2453    -9.6699     2.4823 C       0      f0     0.0075
   1600 C           11.3335    -7.9284     3.1353 C       0      f0    -0.0204
   1601 C           11.6297    -8.2641     5.9208 C       0      f0     0.0224
   1602 C           12.7756    -8.6745     5.5399 C       0      f0    -0.0120
   1603 C           12.7573    -7.0753     3.3393 C       0      f0    -0.0082
   1604 H           12.7958    -9.4320     5.0253 H       0      f0     0.0476
   1605 C           13.0043    -6.2713     2.1940 C       0      f0    -0.0045
   1606 C           13.9444    -6.8654     4.3637 C       0      f0    -0.0058
   1607 C           14.1136    -7.9307     5.3662 C       0      f0     0.0040
   1608 C          -14.4473    -4.9914     4.9753 C       0      f0     0.0002
   1609 C          -14.4556    -3.7630     5.9300 C       0      f0    -0.0073
   1610 H          -14.3182    -2.1601     4.1285 H       0      f0     0.0211
   1611 C          -13.5428    -2.2604     3.2155 C       0      f0    -0.0288
   1612 C          -13.5161    -6.0264     4.7708 C       9      f9    -0.0087
   1613 C          -13.3517    -3.0283     6.3470 C       9      f9    -0.0004
   1614 H          -13.0555    -4.5211     3.4681 H       0      f0     0.0229
   1615 C          -12.7552    -3.4031     3.7246 C       9      f9     0.0090
   1616 C          -12.1441    -3.2791     5.2527 C       9      f9    -0.0124
   1617 C          -12.1582    -5.5117     5.1852 C       9      f9    -0.0520
   1618 C          -11.6091    -4.4202     5.8319 C       9      f9     0.0354
   1619 C          -11.3252    -2.9274     3.4854 C       9      f9    -0.0745
   1620 C          -11.2635    -2.3938     5.7425 C       9      f9    -0.0207
   1621 C          -10.5565    -2.1712     4.2582 C       9      f9     0.2620
   1622 C          -10.2049    -4.4455     6.2300 C       9      f9    -0.0364
   1623 C           -9.2934    -5.6603     6.0977 C       9      f9     0.2079
   1624 H           -8.8423    -5.4744     5.1384 H       0      f0     0.0002
   1625 C           -8.7589    -4.2172     2.4642 C       0      f0     0.0059
   1626 C           -8.6747    -5.3204     3.1002 C       0      f0    -0.0058
   1627 H           -7.9601    -2.5066     3.2318 H       0      f0     0.0566
   1628 C           -7.5302    -3.4404     3.2003 C       0      f0    -0.0432
   1629 H           -7.1639    -3.9325     4.2096 H       0      f0     0.0237
   1630 C           -5.9161    -5.4320     5.3842 C       0      f0    -0.0218
   1631 H           -5.6755    -3.4259     5.7550 H       0      f0     0.0152
   1632 C           -5.4937    -5.6161     2.8904 C      11     f11    -0.0104
   1633 C           -5.3824    -4.0503     2.8671 C      11     f11     0.0006
   1634 H           -4.9407    -5.0635     5.2984 H       0      f0     0.0174
   1635 C           -4.2481    -3.3651     3.5422 C       0      f0    -0.0253
   1636 H           -3.7887    -3.9865     4.3757 H       0      f0     0.0146
   1637 C           -3.2063    -2.8094     2.5869 C      38     f38     0.0239
   1638 H           -1.8547    -5.9704     2.9590 H       0      f0     0.0205
   1639 C           -2.0524    -5.1737     2.1727 C      38     f38    -0.0154
   1640 C           -0.9629    -2.1914     5.9979 C       0      f0    -0.0108
   1641 C           -0.3862    -6.0120     4.2387 C       0      f0    -0.0305
   1642 H           -0.8727    -5.1612     4.0227 H       0      f0     0.0184
   1643 H            0.1373    -2.5409     5.8355 H       0      f0     0.0176
   1644 C            1.4106    -2.5544     2.1904 C      16     f16    -0.0477
   1645 H            1.2630    -3.0557     4.3331 H       0      f0     0.0136
   1646 C            2.0297    -2.6002     3.8021 C       0      f0    -0.0149
   1647 C            2.4457    -5.3373     4.0094 C       0      f0    -0.0107
   1648 C            3.3499    -4.4849     3.4612 C       0      f0     0.0141
   1649 C            3.7439    -2.9704     3.8732 C       0      f0    -0.0176
   1650 C            4.2613    -5.3451     6.0542 C       0      f0     0.0086
   1651 H            4.3005    -2.0538     3.7248 H       0      f0     0.0221
   1652 C            4.6104    -4.0090     6.1772 C       0      f0    -0.0074
   1653 C            4.9766    -3.4098     4.6644 C       0      f0    -0.0054
   1654 H            6.0846    -5.3690     2.3354 H       0      f0     0.0010
   1655 C            6.2601    -2.8590     4.5119 C       0      f0    -0.0079
   1656 C            7.3457    -2.2047     4.3222 C       0      f0    -0.0038
   1657 H            9.4656    -4.7026     3.2686 H       0      f0     0.0238
   1658 C            9.7991    -5.1307     4.1774 C       0      f0    -0.0240
   1659 H           10.5079    -2.2442     3.3099 H       0      f0     0.0218
   1660 C           10.6961    -4.4838     4.9193 C       0      f0    -0.0004
   1661 C           11.5548    -3.9580     5.8938 C       0      f0    -0.0177
   1662 C           11.7238    -2.0618     4.5977 C       0      f0     0.0033
   1663 C           12.0964    -2.5808     5.8742 C       0      f0     0.0003
   1664 C           14.6101    -4.8401     3.0959 C       0      f0    -0.0048
   1665 C           14.6271    -5.4880     4.1755 C       0      f0    -0.0040
   1666 C           14.8960    -3.9811     2.3122 C       0      f0    -0.0026
   1667 C          -14.8718    -0.0633     2.6818 C       0      f0    -0.0040
   1668 C          -14.8219     1.0790     3.1887 C       0      f0     0.0062
   1669 C          -14.5612     2.0292     3.9540 C       0      f0     0.0085
   1670 H          -13.0405    -1.2153     3.3664 H       0      f0     0.0238
   1671 C          -12.1022     1.3339     2.1316 C       0      f0     0.0094
   1672 H          -11.5869    -0.4685     2.3947 H       0      f0     0.0401
   1673 C           -9.7278     0.5100     6.4479 C       0      f0    -0.0637
   1674 O           -9.7300    -0.9229     4.2365 O       0      f0    -0.5386
   1675 C           -9.2566     0.1774     5.1818 C       0      f0     0.2566
   1676 H           -8.2433     0.4588     2.2795 H       0      f0     0.0405
   1677 C           -7.8632     0.6253     4.8941 C       0      f0    -0.0378
   1678 C           -6.7665     0.1374     4.3181 C       0      f0     0.0216
   1679 C           -6.5191     1.9478     6.4176 C       0      f0    -0.0110
   1680 H           -6.0016    -1.7471     4.5841 H       0      f0     0.0210
   1681 C           -5.8883    -0.8033     3.9826 C       0      f0    -0.0243
   1682 H           -5.5081    -1.1662     1.7162 H       0      f0     0.0204
   1683 H           -5.7943     1.0715     6.3888 H       0      f0     0.0180
   1684 C           -5.0865    -0.5507     2.6034 C       0      f0    -0.0074
   1685 C           -5.1830     0.9173     2.3332 C       0      f0    -0.0064
   1686 H           -4.8306     0.0522     5.4900 H       0      f0     0.0196
   1687 C           -4.6822     2.0162     3.1995 C       0      f0     0.0000
   1688 C           -4.0891    -0.6617     5.7780 C       0      f0    -0.0182
   1689 C           -3.5664     1.8650     4.1012 C       0      f0    -0.0067
   1690 C           -2.6454     0.6113     4.2855 C       0      f0     0.0234
   1691 C           -2.8180    -0.6191     5.0856 C       0      f0     0.0108
   1692 C           -1.5982     0.8385     3.3552 C       0      f0    -0.0380
   1693 C           -1.7202    -1.5360     4.9706 C       0      f0     0.0160
   1694 C           -1.3252     2.0019     2.2096 C       0      f0     0.0024
   1695 C           -0.5355    -1.1062     3.9922 C       0      f0    -0.0730
   1696 C           -0.4528    -0.0898     3.1019 C       0      f0     0.2444
   1697 H            0.1120    -1.9498     4.0126 H       0      f0     0.0328
   1698 O            0.6574     0.0146     2.0336 O       0      f0    -0.4906
   1699 H            0.9362     0.0914     5.8309 H       0      f0     0.0809
   1700 C            1.7377    -0.5384     5.6252 C       0      f0    -0.0340
   1701 C            1.8652    -1.1810     4.2795 C       0      f0     0.0382
   1702 C            2.7883     0.0996     6.2772 C      19     f19     0.0154
   1703 C            4.0647    -0.4832     5.9146 C      19     f19    -0.0262
   1704 H            4.2024    -1.2906     5.2374 H       0      f0     0.0213
   1705 C            5.4859     0.9587     2.2575 C       0      f0     0.0032
   1706 C            6.1343     1.5280     5.7853 C       0      f0    -0.0049
   1707 C            6.5838    -0.0098     2.7439 C       0      f0    -0.0269
   1708 H            7.0305     0.2147     3.6000 H       0      f0     0.0238
   1709 H            7.9313     0.6228     5.4537 H       0      f0     0.0209
   1710 C            7.6091     1.3768     6.0368 C       0      f0    -0.0144
   1711 C            8.2986    -1.4971     4.0450 C       0      f0    -0.0091
   1712 C            9.0631    -0.6847     3.4723 C       7      f7    -0.0018
   1713 C            9.2405     0.6530     3.9743 C       7      f7     0.0040
   1714 H            9.4566     0.2280     6.1926 H       0      f0     0.0214
   1715 C            9.8472     1.4182     2.9829 C       7      f7    -0.0073
   1716 C            9.8901     0.4115     5.2044 C       7      f7    -0.0370
   1717 H           10.9687     0.3798     5.2147 H       0      f0     0.0246
   1718 C           11.5257    -1.4945     3.5845 C       0      f0    -0.0400
   1719 H           11.9924    -0.6257     3.0826 H       0      f0     0.0191
   1720 H           14.0798     0.3576     5.3409 H       0      f0     0.0211
   1721 H           14.0647    -1.5715     2.9090 H       0      f0     0.0190
   1722 C           14.3276     0.2270     6.3124 C       0      f0    -0.0217
   1723 C           15.0745    -1.3537     2.5527 C       0      f0    -0.0249
   1724 C          -13.7177     2.9134     4.6290 C       0      f0     0.0077
   1725 C          -13.8477     3.4372     5.8994 C       0      f0    -0.0014
   1726 C          -12.3592     3.7447     6.3629 C       0      f0     0.0034
   1727 C          -12.3259     2.9967     3.9819 C       0      f0     0.0097
   1728 C          -12.0479     2.2470     3.0712 C       0      f0     0.0276
   1729 C          -11.6008     3.6821     5.1916 C       0      f0    -0.0006
   1730 C          -10.2439     3.7889     5.4216 C       0      f0     0.0053
   1731 C           -9.7858     5.8238     3.9303 C       0      f0    -0.0186
   1732 C           -9.9551     5.1887     6.1171 C       0      f0    -0.0219
   1733 C           -9.2343     2.6246     5.6392 C       0      f0    -0.0077
   1734 C           -9.0865     4.9232     3.3748 C       0      f0     0.0019
   1735 C           -8.5828     4.1301     2.6716 C       0      f0     0.0009
   1736 C           -7.8721     2.1772     5.4357 C       0      f0    -0.0178
   1737 H           -7.2180     2.5515     4.6332 H       0      f0     0.0254
   1738 C           -5.7755     3.3855     6.0325 C       0      f0    -0.0047
   1739 C           -5.7524     3.8283     4.6686 C       0      f0    -0.0072
   1740 C           -5.8616     5.6857     3.0125 C       0      f0     0.0055
   1741 C           -5.7217     2.8791     3.4407 C       0      f0    -0.0065
   1742 C           -5.3222     5.1548     4.2190 C       0      f0    -0.0018
   1743 C           -4.6804     6.1173     5.3090 C       0      f0    -0.0018
   1744 H           -3.4034     3.0614     6.4407 H       0      f0     0.0288
   1745 C           -3.0340     4.1185     6.2386 C       6      f6    -0.0107
   1746 C           -2.6396     3.0017     4.1563 C       0      f0     0.0151
   1747 C           -2.2576     4.2437     4.8718 C       0      f0     0.0036
   1748 C           -1.0993     4.8750     4.9785 C       0      f0     0.0146
   1749 C           -0.1302     5.7987     5.1667 C       0      f0    -0.0190
   1750 C            0.8731     5.6496     6.1392 C       0      f0    -0.0124
   1751 C            3.1101     5.4850     2.9006 C      12     f12    -0.0213
   1752 C            3.7492     5.2171     4.2677 C      12     f12     0.0069
   1753 H            3.9357     1.9242     5.9723 H       0      f0     0.0269
   1754 C            4.4681     4.0559     4.5209 C      12     f12    -0.0013
   1755 C            4.9167     3.7812     3.2414 C      12     f12     0.0083
   1756 C            5.3821     4.0216     5.8754 C      12     f12    -0.0091
   1757 C            5.8788     2.9170     6.0002 C       0      f0    -0.0070
   1758 C            5.9338     4.6326     2.6588 C      12     f12    -0.0220
   1759 H            6.4651     5.6210     3.1345 H       0      f0     0.0182
   1760 H            8.2550     3.5123     4.9187 H       0      f0     0.0207
   1761 C            8.7390     2.7673     5.5881 C       0      f0    -0.0329
   1762 H            9.1878     3.2574     2.3182 H       0      f0     0.0211
   1763 C            9.4427     4.3061     2.5082 C       0      f0    -0.0195
   1764 H            9.9150     4.7120     4.4829 H       0      f0     0.0198
   1765 C            9.7806     5.1270     3.5415 C       0      f0    -0.0177
   1766 C           10.0880     1.9745     5.3301 C       7      f7     0.0027
   1767 C           11.0863     2.1640     3.0774 C       7      f7    -0.0075
   1768 C           11.1168     2.4837     4.5211 C       7      f7    -0.0061
   1769 C           12.1322     3.6284     4.4242 C       7      f7    -0.0016
   1770 C           12.1184     2.5792     2.1784 C       7      f7     0.0022
   1771 C           12.2186     4.1858     5.7884 C       7      f7    -0.0041
   1772 C           12.6254     4.6088     3.4593 C       7      f7     0.0024
   1773 C           12.7131     4.1452     2.2147 C       7      f7     0.0091
   1774 C           12.6264     5.6069     5.7007 C       7      f7     0.0053
   1775 C          -15.0021     9.3663     3.3964 C       0      f0    -0.0202
   1776 H          -14.8324     7.7211     5.5294 H       0      f0     0.0182
   1777 C          -13.8698     7.9882     4.9586 C      26     f26    -0.0173
   1778 C          -13.6668     8.9994     3.9679 C      26     f26     0.0048
   1779 C          -12.7783     7.9352     5.7898 C      26     f26     0.0066
   1780 C          -12.2161     9.3158     3.6663 C      26     f26    -0.0010
   1781 C          -11.4910     9.1820     2.3444 C       0      f0    -0.0120
   1782 C          -11.4176     8.3563     5.8348 C      26     f26    -0.0011
   1783 C          -11.1210     9.0059     4.4879 C      26     f26     0.0000
   1784 H          -11.2532     8.2882     1.5550 H       0      f0     0.0204
   1785 H          -10.3857     6.6392     3.4927 H       0      f0     0.0229
   1786 C           -9.9337     9.7244     4.9867 C      26     f26    -0.0168
   1787 C           -9.6287     6.3854     5.3950 C       0      f0     0.0031
   1788 C           -8.9592     7.5894     6.1208 C      26     f26    -0.0199
   1789 C           -8.7899     9.0557     5.3044 C      26     f26    -0.0000
   1790 C           -7.5260     9.3734     4.8636 C       0      f0    -0.0042
   1791 H           -6.6783     8.7691     2.8834 H       0      f0     0.0203
   1792 C           -6.9791     7.7552     2.3742 C       0      f0    -0.0144
   1793 H           -7.0185     6.7230     4.5001 H       0      f0     0.0213
   1794 C           -6.6313     6.8440     3.4565 C       0      f0    -0.0164
   1795 C           -6.4530     9.1333     5.6413 C       0      f0    -0.0053
   1796 C           -5.3878     8.9520     6.4336 C       0      f0     0.0007
   1797 C           -4.7059     6.5714     2.2147 C       0      f0    -0.0143
   1798 C           -4.1255     7.3934     4.9565 C       0      f0     0.0014
   1799 C           -3.7806     7.3362     3.4597 C       0      f0     0.0019
   1800 C           -3.8053     8.3954     5.9220 C       0      f0    -0.0021
   1801 C           -2.7162     7.9817     3.3549 C       0      f0    -0.0046
   1802 C           -2.4663     8.9572     6.2682 C       0      f0    -0.0012
   1803 C           -1.6628     8.6481     3.7411 C       0      f0    -0.0207
   1804 C           -1.4188     8.7713     5.2149 C       0      f0     0.0010
   1805 H           -0.9007     9.1027     2.8931 H       0      f0     0.0135
   1806 H           -0.5149     6.7182     4.9544 H       0      f0     0.0186
   1807 C           -0.0830     9.2684     5.5600 C       0      f0    -0.0178
   1808 H            0.7945     9.6544     4.9179 H       0      f0     0.0138
   1809 H            1.2923     6.7250     6.3816 H       0      f0     0.0153
   1810 H            2.3405     6.2708     2.7446 H       0      f0     0.0133
   1811 H            3.0702     7.9056     4.2084 H       0      f0     0.0154
   1812 C            4.0875     7.8391     4.3775 C      12     f12    -0.0364
   1813 C            4.4735     6.3870     4.7403 C      12     f12    -0.0032
   1814 H            4.3991     7.8319     3.2045 H       0      f0     0.0149
   1815 C            4.8097     8.5705     5.2414 C      12     f12     0.0092
   1816 C            5.2033     6.4563     5.9182 C      12     f12     0.0009
   1817 C            5.0113    10.0690     4.9767 C       0      f0    -0.0268
   1818 C            5.4462     7.9026     6.2587 C      12     f12    -0.0036
   1819 C           10.5576     6.4330     2.9143 C       0      f0    -0.0047
   1820 C           11.2128     8.8845     5.3171 C       0      f0    -0.0081
   1821 C           11.3473     8.1480     4.4371 C       0      f0    -0.0030
   1822 C           11.6291     6.9167     3.7475 C       0      f0    -0.0036
   1823 H           12.5722     9.5555     2.6994 H       0      f0     0.0236
   1824 C           12.8415     5.9457     4.2772 C       7      f7    -0.0201
   1825 H           13.6483     6.5249     3.9214 H       0      f0     0.0251
   1826 H           14.4220     9.4611     4.0919 H       0      f0     0.0141
   1827 C          -14.5921    10.1617     2.2785 C       0      f0    -0.0023
   1828 C          -14.7016    13.4228     5.5499 C       3      f3     0.0224
   1829 C          -14.1829    12.3813     6.4186 C       3      f3    -0.0035
   1830 C          -13.8336    13.3435     4.3766 C       3      f3    -0.0110
   1831 C          -12.8994    11.9416     6.0057 C       3      f3    -0.0201
   1832 C          -12.7669    12.7728     4.7250 C       3      f3     0.0040
   1833 C          -11.6799    13.1097     4.1337 C       3      f3    -0.0028
   1834 C          -11.7222    13.8077     2.7007 C       3      f3    -0.0014
   1835 C          -10.3259    12.8508     4.2294 C       3      f3    -0.0070
   1836 C          -10.0846    13.4268     5.4930 C       0      f0    -0.0077
   1837 H           -9.6787    10.7026     4.4362 H       0      f0     0.0197
   1838 C           -9.6499    13.1345     2.7249 C       3      f3     0.0001
   1839 C           -8.2278    12.7919     2.3534 C       0      f0    -0.0293
   1840 H           -8.1406    13.3457     5.2430 H       0      f0     0.0264
   1841 H           -7.8654    12.6185     3.4126 H       0      f0     0.0181
   1842 C           -7.6835    13.3030     6.0663 C      13     f13    -0.0378
   1843 H           -7.6210    10.9865     3.2313 H       0      f0     0.0153
   1844 C           -6.9983    10.5546     3.9930 C       0      f0    -0.0253
   1845 H           -7.1224    12.3196     6.3945 H       0      f0     0.0230
   1846 C           -5.6926    10.4844     3.8898 C       0      f0    -0.0013
   1847 C           -4.4744    10.6701     3.3589 C       0      f0    -0.0039
   1848 C           -4.1171    14.0465     2.2650 C       0      f0    -0.0332
   1849 H           -3.2597    13.8272     2.8955 H       0      f0     0.0345
   1850 C           -3.2643    10.4471     2.6239 C       0      f0    -0.0197
   1851 H           -3.3562    13.5645     5.7801 H       0      f0     0.0196
   1852 H           -2.1271    11.7704     4.9077 H       0      f0     0.0227
   1853 C           -1.8701    11.1388     2.7618 C       0      f0     0.0149
   1854 C           -1.4148    11.5943     4.0530 C       0      f0    -0.0129
   1855 C           -0.0888    11.8352     4.2208 C       0      f0     0.0133
   1856 C            0.2671    12.8172     5.3507 C      46     f46    -0.0536
   1857 C            1.0623    11.5851     3.3673 C       0      f0     0.0461
   1858 C            1.3860    13.4074     5.0620 C      46     f46     0.1948
   1859 O            2.1851    14.0968     3.7561 O      46     f46    -0.5180
   1860 C            2.2351    13.2208     6.0205 C      46     f46    -0.0367
   1861 C            2.3889    11.2218     3.5563 C       0      f0    -0.0128
   1862 H            2.9552    11.3488     4.4571 H       0      f0     0.0254
   1863 C            3.4443   -14.1977     4.4302 C      46     f46     0.2650
   1864 C            3.6517    13.6569     5.8216 C      46     f46    -0.0456
   1865 H            4.3494    10.7672     5.3535 H       0      f0     0.0192
   1866 C            4.6969    13.4796     6.4897 C       0      f0     0.0044
   1867 C            5.2794    10.3798     3.6845 C       0      f0    -0.0036
   1868 C            5.4136    10.6716     2.4191 C      39     f39    -0.0065
   1869 H            7.2459    11.4049     6.2516 H       0      f0     0.0187
   1870 H            9.0059    12.9027     6.1478 H       0      f0     0.0167
   1871 C            9.3700    13.4658     2.4833 C       0      f0     0.0168
   1872 H           10.1122    11.3579     5.6310 H       0      f0     0.0198
   1873 C           10.1287    12.7602     2.9129 C       0      f0     0.0132
   1874 C           10.5511    11.0622     6.5710 C       0      f0    -0.0229
   1875 C           11.4646    12.1914     3.3304 C       0      f0     0.0189
   1876 C           12.1303    11.5523     4.3598 C       0      f0    -0.0067
   1877 C           12.6033    12.9025     6.2318 C       0      f0     0.0209
   1878 C           13.0715    11.7344     5.5582 C       0      f0    -0.0206
   1879 H           13.9210    13.5280     2.9195 H       0      f0     0.0297
   1880 H           14.1582    11.3108     5.3554 H       0      f0     0.0147
   1881 C          -13.4197   -11.1914     7.9612 C       0      f0     0.0089
   1882 H          -13.6166   -12.1081    10.5390 H       0      f0     0.0131
   1883 H          -12.8815   -13.5012     8.0088 H       0      f0     0.0189
   1884 C          -13.3100   -12.4453     8.5893 C       0      f0    -0.0284
   1885 C          -12.6161   -12.1246     9.8944 C       0      f0    -0.0144
   1886 C          -11.8241   -13.6083    10.2951 C       0      f0    -0.0176
   1887 C          -11.4135   -11.2947     9.5725 C       0      f0     0.0016
   1888 H          -11.3832   -13.8241     9.2441 H       0      f0     0.0215
   1889 C          -10.2336   -11.6400     9.9921 C       0      f0    -0.0029
   1890 C          -10.0040   -13.3014     7.3415 C       0      f0    -0.0079
   1891 C           -9.1099   -12.0078    10.0546 C       0      f0     0.0014
   1892 C           -8.0829   -12.6585    10.8049 C       0      f0     0.0021
   1893 C           -6.2492   -14.0198     7.7276 C      13     f13    -0.0016
   1894 C           -5.5187   -10.4751    10.4938 C      40     f40    -0.0215
   1895 C           -5.1179   -13.2320     8.1259 C      13     f13    -0.0003
   1896 C           -5.0677   -12.1891     7.2121 C      13     f13    -0.0008
   1897 H           -5.2480   -10.9005     9.4689 H       0      f0     0.0225
   1898 C           -4.0654   -14.0804     8.9270 C      13     f13     0.0037
   1899 H           -4.1519   -10.3526     7.3576 H       0      f0     0.0199
   1900 C           -3.8210   -11.5054     7.6487 C      13     f13    -0.0211
   1901 C           -3.1335   -13.2336     9.4359 C      13     f13    -0.0167
   1902 C           -3.1425   -11.8488     8.8672 C      13     f13     0.0099
   1903 H           -2.2650   -13.5072    10.2809 H       0      f0     0.0201
   1904 C           -1.9519   -10.8465     9.2727 C       0      f0    -0.0382
   1905 C           -1.8143   -14.2153     6.8354 C       0      f0     0.0019
   1906 C           -1.1321   -11.3916    10.5679 C       0      f0    -0.0033
   1907 H           -1.0152   -10.5934     9.0111 H       0      f0     0.0189
   1908 C           -0.6330   -13.5039     6.6257 C       0      f0    -0.0053
   1909 C            0.3918   -12.6086     9.6041 C       0      f0    -0.0092
   1910 C            1.5303   -13.1699     9.3014 C       0      f0    -0.0030
   1911 H            2.2081    -9.9566     9.8971 H       0      f0     0.0183
   1912 C            2.7016   -13.7746     9.0405 C       0      f0    -0.0185
   1913 H            3.4459   -13.4953     9.7827 H       0      f0     0.0203
   1914 H            4.5881    -9.6468     7.4921 H       0      f0     0.0162
   1915 H            6.2477   -12.3283     7.2951 H       0      f0     0.0249
   1916 C            5.9097   -13.1257     9.1948 C       0      f0    -0.0193
   1917 C            6.1352   -12.0902     8.4338 C       0      f0    -0.0246
   1918 H            5.8062   -12.9019    10.2703 H       0      f0     0.0167
   1919 C            6.4040   -10.5402    10.2030 C      41     f41    -0.0081
   1920 C            6.4916   -10.7377     8.7070 C      41     f41     0.0410
   1921 C            8.6310   -13.4970     7.6169 C      47     f47    -0.0363
   1922 C            8.8319   -12.6021     8.7626 C      47     f47     0.2185
   1923 C            9.0786   -13.3181     9.9108 C      47     f47    -0.0483
   1924 O            9.2326   -11.1037     8.6187 O      47     f47    -0.4816
   1925 C           10.0677   -12.3841    10.6694 C      47     f47    -0.0278
   1926 C           10.0606   -11.1036     9.9410 C      47     f47     0.1981
   1927 C           13.0527   -11.2389     9.9727 C       0      f0     0.0115
   1928 C           13.2082   -12.6377    10.2289 C       0      f0     0.0072
   1929 O           13.7568   -11.9446     6.8888 O       3      f3    -0.5033
   1930 C           13.9813   -13.3790     9.2656 C       3      f3    -0.0407
   1931 C           14.4754   -12.7040     7.9778 C       3      f3     0.2187
   1932 C           14.9899   -13.8852     7.3322 C       3      f3    -0.0251
   1933 H          -14.4125    -9.3765     9.0335 H       0      f0     0.0214
   1934 C          -13.5419   -10.0403     8.9372 C       0      f0    -0.0247
   1935 C          -12.3266    -9.9509     9.7441 C       0      f0     0.0012
   1936 C          -12.2985    -8.7153    10.4826 C       0      f0    -0.0315
   1937 H          -11.2231    -8.2712     8.1948 H       0      f0     0.0527
   1938 C          -10.9160    -8.4733    10.4174 C       0      f0     0.0009
   1939 C          -10.6284    -8.6732     8.9800 C       0      f0    -0.0113
   1940 C           -9.0402    -6.7898    10.6236 C       0      f0    -0.0047
   1941 C           -9.1754    -8.3005     8.8926 C       0      f0     0.0058
   1942 C           -9.0205    -6.7958     9.0744 C       0      f0     0.0214
   1943 H           -8.2594    -8.5877     8.3727 H       0      f0     0.0335
   1944 H           -7.0635   -10.2643     7.0503 H       0      f0     0.0261
   1945 C           -5.3358    -8.8262     6.8672 C       0      f0     0.0017
   1946 C           -5.4525    -8.0150     9.5398 C       0      f0    -0.0209
   1947 C           -5.4955    -8.4353     8.2858 C       0      f0    -0.0000
   1948 H           -4.9488    -7.0561     9.5458 H       0      f0     0.0218
   1949 H           -2.2695    -9.7953     9.5197 H       0      f0     0.0183
   1950 C           -2.5246    -6.4717     8.2414 C      20     f20    -0.0194
   1951 C           -2.0464    -6.7939     9.6447 C      20     f20    -0.0025
   1952 C           -1.4892    -7.1363     7.4513 C      20     f20     0.0044
   1953 C           -0.8323    -7.5083     9.6921 C      20     f20    -0.0001
   1954 C           -0.4685    -7.8758     8.2670 C      20     f20    -0.0005
   1955 H            0.2975   -10.0984     9.7312 H       0      f0     0.0184
   1956 H            0.4003    -9.0822     7.2761 H       0      f0     0.0141
   1957 C            0.8242    -8.1618     7.7512 C       0      f0    -0.0135
   1958 C            0.9957    -9.3885     9.9239 C       0      f0    -0.0312
   1959 C            1.6694    -8.3815     8.8434 C       0      f0     0.0120
   1960 C            3.1351    -8.1257     8.9141 C       0      f0     0.0017
   1961 H            3.4705    -8.1972     7.9290 H       0      f0     0.0185
   1962 C            4.1709    -8.6777    10.0239 C      41     f41     0.0073
   1963 H            4.3145    -8.2310     6.5935 H       0      f0     0.0165
   1964 C            5.3925    -8.8106     9.4254 C      41     f41    -0.0001
   1965 C            5.7430    -9.5091     8.1029 C      41     f41    -0.0468
   1966 C            6.4027    -8.9664    10.3358 C      41     f41     0.0049
   1967 H            6.6442    -9.1788     7.5515 H       0      f0     0.0308
   1968 C            7.9154    -8.4513     9.7540 C       0      f0    -0.0062
   1969 C            8.1400    -7.1588     9.5375 C       0      f0    -0.0069
   1970 H            8.5285    -9.3827    10.0367 H       0      f0     0.0475
   1971 C            8.7821    -6.1301     9.3461 C       0      f0     0.0272
   1972 H           10.4233    -6.9929     6.4781 H       0      f0     0.0243
   1973 C           11.0114    -9.9929    10.3604 C       0      f0    -0.0649
   1974 H           10.4851    -9.3712     9.2193 H       0      f0     0.0913
   1975 O           11.8775    -6.5916     9.6230 O      42     f42    -0.4712
   1976 C           12.5827   -10.0146    10.2915 C       0      f0     0.0310
   1977 C           13.1827    -6.5737     8.8362 C      42     f42     0.2415
   1978 C           13.5099    -8.9898     9.6357 C       0      f0     0.0570
   1979 C           13.9318    -7.9186     8.8220 C       0      f0    -0.0472
   1980 H           14.7386    -8.1607     8.0165 H       0      f0     0.0240
   1981 H          -14.6262    -6.0846     7.4888 H       0      f0     0.0179
   1982 H          -14.5941    -3.8011     9.6815 H       0      f0     0.0169
   1983 C          -13.8415    -4.5594    10.0155 C       0      f0    -0.0034
   1984 C          -12.6831    -3.9272     9.8882 C       0      f0    -0.0019
   1985 C          -11.6942    -3.0104     9.7250 C       0      f0    -0.0001
   1986 C          -10.1764    -3.3259     9.9666 C       0      f0    -0.0080
   1987 C          -10.1831    -3.0946     6.6433 C       9      f9     0.0181
   1988 C           -9.9688    -4.5384    10.7223 C       0      f0    -0.0018
   1989 C           -9.6872    -2.7759     8.7121 C       0      f0    -0.0003
   1990 C           -9.3735    -2.2235     7.6309 C       0      f0    -0.0246
   1991 C           -8.2475    -5.7991     8.3943 C       0      f0    -0.0044
   1992 C           -8.0389    -5.7685     6.9026 C       0      f0    -0.0164
   1993 H           -8.3231    -4.0805     9.9387 H       0      f0     0.0163
   1994 H           -7.7151    -4.8773     8.8207 H       0      f0     0.0137
   1995 C           -6.7203    -5.4443     6.7210 C       0      f0     0.0062
   1996 H           -6.3963    -2.6789     9.1476 H       0      f0     0.0192
   1997 C           -5.9476    -4.5021     7.7929 C       0      f0    -0.0030
   1998 C           -5.4838    -3.5625     6.8568 C       0      f0    -0.0197
   1999 C           -5.1115    -4.5895     8.8457 C       0      f0    -0.0103
   2000 C           -4.1899    -2.9509     6.9957 C       0      f0    -0.0045
   2001 C           -4.1045    -4.2314     9.3165 C       0      f0    -0.0008
   2002 C           -3.5510    -4.9542    10.5520 C       0      f0    -0.0223
   2003 C           -3.4786    -3.1941     8.2527 C       0      f0    -0.0044
   2004 H           -3.1835    -5.7955     7.6690 H       0      f0     0.0213
   2005 C           -2.3019    -5.7198    10.6104 C      20     f20    -0.0006
   2006 H           -2.2816    -2.8559    10.2220 H       0      f0     0.0224
   2007 C           -2.2506    -2.5746     8.4556 C       0      f0     0.0029
   2008 C           -1.6378    -2.2802     7.2931 C       0      f0     0.0100
   2009 C           -1.4232    -2.8092     9.5114 C       0      f0    -0.0336
   2010 C           -0.2025    -3.6216     9.4179 C       0      f0    -0.0183
   2011 H           -0.2204    -4.0372     8.4273 H       0      f0     0.0275
   2012 C            0.7721    -3.2200    10.1596 C       0      f0     0.0178
   2013 C            3.5531    -2.6040     8.0579 C       0      f0     0.0163
   2014 C            4.1506    -3.3903     7.2753 C       0      f0     0.0058
   2015 O            4.1525    -4.8349    10.6457 O       0      f0    -0.4648
   2016 C            5.3581    -5.3371    10.6985 C       0      f0     0.2998
   2017 H            5.5382    -6.1585    10.0230 H       0      f0    -0.0098
   2018 H            8.9385    -4.1224     8.5920 H       0      f0     0.0217
   2019 C            9.6236    -5.0216     9.0092 C       0      f0    -0.0737
   2020 C           11.0506    -5.2492     9.3262 C      42     f42     0.2214
   2021 H           11.4134    -4.5803     6.8657 H       0      f0     0.0214
   2022 H           11.4329    -3.0450     8.8189 H       0      f0     0.0202
   2023 C           11.8173    -4.1313     9.0733 C      42     f42    -0.0607
   2024 C           13.1074    -2.1905     6.8651 C       0      f0    -0.0025
   2025 C           13.3567    -4.0043     8.9965 C      42     f42     0.0208
   2026 C           13.8018    -5.4456     8.5251 C      42     f42    -0.0582
   2027 C           13.7146    -3.2100     7.6904 C      42     f42    -0.0095
   2028 H           13.9138    -3.5307     9.8522 H       0      f0     0.0180
   2029 C           14.8820    -5.3383     7.4687 C      42     f42    -0.0157
   2030 C           14.9498    -3.9816     7.1224 C      42     f42     0.0015
   2031 C          -15.0807     1.2896     6.8117 C       0      f0     0.0009
   2032 H          -14.5561     1.7867     8.6771 H       0      f0     0.0195
   2033 C          -14.8081    -0.9947    10.0549 C       0      f0    -0.0157
   2034 C          -14.0970     0.8010     8.0372 C       0      f0    -0.0151
   2035 C          -13.7331    -0.6633     7.9136 C       0      f0    -0.0005
   2036 C          -13.7445    -1.3900     9.0692 C       0      f0    -0.0033
   2037 C          -13.1351    -1.8516     7.0143 C       9      f9    -0.0067
   2038 C          -12.6198     1.4359     8.4754 C       0      f0    -0.0005
   2039 C          -12.3947    -1.6372     9.8528 C       0      f0     0.0000
   2040 C          -12.1906    -0.3027    10.5506 C       0      f0     0.0023
   2041 C          -11.7374    -1.4039     6.8492 C       9      f9     0.0078
   2042 C          -11.3893     0.5564     8.2670 C       0      f0    -0.0023
   2043 C          -11.0485    -0.1607     7.0296 C       0      f0     0.0227
   2044 C          -10.7905     0.1653    10.6648 C       0      f0    -0.0030
   2045 C          -10.2619     0.6341     9.3010 C       0      f0     0.0026
   2046 C           -9.4088     1.8941     6.9739 C       0      f0     0.0149
   2047 C           -9.4207     1.7435     9.3604 C       0      f0     0.0003
   2048 H           -8.6877    -1.7039     7.5076 H       0      f0     0.0281
   2049 H           -7.4415     1.4217     8.7852 H       0      f0     0.0223
   2050 H           -6.7369    -0.4270     7.4847 H       0      f0     0.0191
   2051 C           -6.6389     1.5920     7.9144 C       0      f0    -0.0171
   2052 C           -6.5254    -1.5365     9.2787 C       0      f0    -0.0206
   2053 C           -5.9364    -0.7305     8.0814 C       0      f0    -0.0146
   2054 C           -6.3219    -1.0255    10.5008 C       0      f0     0.0001
   2055 C           -5.4329     0.6404     8.2640 C       0      f0    -0.0035
   2056 C           -4.3645     0.6363     9.2519 C       0      f0     0.0045
   2057 C           -4.1991    -1.7446     6.3822 C       0      f0    -0.0004
   2058 H           -2.9658     1.7117     7.7380 H       0      f0     0.0494
   2059 C           -3.1432     1.2257     8.8055 C       0      f0     0.0037
   2060 C           -1.9891     0.3502    10.5962 C       0      f0    -0.0009
   2061 C           -1.9257     1.0597     9.4005 C       0      f0    -0.0455
   2062 H           -0.6776    -1.9949     9.8199 H       0      f0     0.0233
   2063 C           -0.6143     1.4988     8.5669 C       0      f0     0.3106
   2064 O           -0.5944     1.4193     7.3117 O       0      f0    -0.4920
   2065 H            0.1691     1.0950     9.3075 H       0      f0    -0.0266
   2066 C            2.8407     1.1253     7.4224 C      19     f19     0.0167
   2067 C            2.6636     0.9547     8.7556 C      19     f19     0.0030
   2068 C            2.8788    -1.5964     8.7799 C       0      f0    -0.0004
   2069 C            3.1165    -0.3017     9.5337 C       0      f0     0.0075
   2070 C            4.1424     1.7081     7.0934 C      19     f19    -0.0198
   2071 C            4.4987    -0.3754    10.0673 C       0      f0     0.0071
   2072 C            4.6572    -1.6425    10.7473 C       0      f0     0.0240
   2073 C            5.2926     0.4530     6.4535 C      19     f19     0.0026
   2074 H            5.4040    -1.3309     7.4774 H       0      f0     0.0214
   2075 C            6.0572    -0.4661     7.3157 C       0      f0    -0.0250
   2076 C            6.2717     1.2661    10.4144 C      25     f25    -0.0180
   2077 H            6.0339     1.6781     9.3083 H       0      f0     0.0189
   2078 C            7.3112    -0.0583     7.8647 C       0      f0     0.0035
   2079 C            7.7833    -0.6685     9.0345 C       0      f0    -0.0107
   2080 C            7.9643    -1.2352    10.2391 C       0      f0    -0.0075
   2081 C            7.8523     1.3930     7.5828 C       0      f0    -0.0324
   2082 H            8.6211     1.8006    10.6587 H       0      f0     0.0162
   2083 H            8.9080     1.8154     7.4077 H       0      f0     0.0195
   2084 H            9.8339     0.1182    10.9280 H       0      f0     0.0245
   2085 H           10.1124    -1.2873     9.5469 H       0      f0     0.0210
   2086 C           10.2278    -0.7435    10.3705 C       0      f0    -0.0371
   2087 C           11.5230    -0.4913    10.2004 C       0      f0    -0.0285
   2088 H           11.4912    -0.1945     9.1174 H       0      f0     0.0183
   2089 H           12.0533    -1.5240    10.5026 H       0      f0     0.0224
   2090 C           13.7431    -0.8425     7.0633 C       0      f0    -0.0078
   2091 H           14.6064    -0.6803     9.5058 H       0      f0     0.0190
   2092 C           15.1082     3.7222     7.7324 C       0      f0    -0.0040
   2093 C          -14.9318     2.7162     6.7371 C       0      f0    -0.0035
   2094 C          -14.0442     4.1763     8.1546 C       0      f0    -0.0045
   2095 H          -13.0848     5.3870    10.6263 H       0      f0     0.0189
   2096 C          -12.8376     4.5963     8.7435 C       0      f0     0.0026
   2097 C          -12.2324     2.5647     9.3988 C       0      f0    -0.0075
   2098 C          -12.2003     5.0557    10.0886 C       0      f0    -0.0189
   2099 C          -11.8967     3.5102    10.4182 C       0      f0     0.0011
   2100 C          -11.9312     4.2368     7.6740 C       0      f0    -0.0206
   2101 H          -11.0168     4.5523     7.8327 H       0      f0     0.0204
   2102 C           -9.6776     5.4833    10.4571 C       0      f0     0.0040
   2103 C           -9.3229     2.4833     8.1475 C       0      f0    -0.0216
   2104 H           -9.6842     5.2561     7.1238 H       0      f0     0.0153
   2105 H           -9.0541     3.5567     8.3830 H       0      f0     0.0176
   2106 C           -8.8248     2.2511    10.5469 C       0      f0    -0.0037
   2107 C           -8.4350     5.9105     9.7874 C       0      f0    -0.0204
   2108 H           -7.9148     5.1292     9.2224 H       0      f0     0.0156
   2109 C           -7.5986     3.0032    10.3697 C       0      f0    -0.0115
   2110 C           -6.6462     3.3687     9.7343 C       0      f0    -0.0288
   2111 C           -6.1758     2.9795     8.3156 C       0      f0     0.0011
   2112 H           -6.0962     4.1759    10.1073 H       0      f0     0.0159
   2113 H           -5.8481     5.9200     8.0881 H       0      f0     0.0179
   2114 C           -5.5487     3.7978     7.5139 C       0      f0    -0.0056
   2115 C           -5.0033     5.2685     7.9964 C       6      f6    -0.0211
   2116 H           -4.7086     3.4348    10.5795 H       0      f0     0.0210
   2117 C           -4.0812     5.3330     6.4638 C       6      f6     0.0042
   2118 C           -4.0471     5.5770     8.9530 C       6      f6    -0.0002
   2119 C           -2.6070     5.2360     8.6023 C       6      f6     0.0034
   2120 C           -2.2863     4.3829     7.5373 C       6      f6    -0.0141
   2121 C           -1.8121     5.4968     9.9509 C       6      f6    -0.0201
   2122 H           -1.2501     4.1703     7.0544 H       0      f0     0.0454
   2123 H           -0.7987     5.9747     9.6237 H       0      f0     0.0170
   2124 H            0.1400     3.6230     8.7269 H       0      f0     0.0221
   2125 H            0.5520     4.0924    11.3901 H       0      f0     0.0182
   2126 C            0.9868     4.1018     8.1418 C       0      f0    -0.0071
   2127 C            1.3187     5.1133     9.2080 C       0      f0    -0.0101
   2128 C            1.5276     4.3370     6.8564 C       0      f0     0.0287
   2129 H            3.7785     3.5137     6.3128 H       0      f0     0.0254
   2130 C            3.0007     2.1439     9.6274 C      19     f19     0.0019
   2131 C            2.9407     4.4246     6.5492 C       0      f0    -0.0151
   2132 C            3.6098     5.3577     7.4651 C       0      f0    -0.0000
   2133 C            3.9476     2.9660     9.1790 C      19     f19    -0.0005
   2134 C            4.1773     4.1329    10.2674 C      19     f19     0.0034
   2135 C            4.5879     2.8413     7.9354 C      19     f19    -0.0205
   2136 C            5.0313     5.1522     6.7810 C      12     f12     0.0036
   2137 C            5.2810     5.1361    10.1506 C       0      f0    -0.0227
   2138 C            5.5010     5.7491     8.8298 C       0      f0     0.0037
   2139 H            5.5451     3.4377     7.9746 H       0      f0     0.0182
   2140 C            6.0029     5.1407     7.7430 C       0      f0    -0.0240
   2141 H            6.8418     4.6239     8.1593 H       0      f0     0.0155
   2142 H            7.2400     2.3786     7.9085 H       0      f0     0.0145
   2143 H            8.5186     5.3498     7.4641 H       0      f0     0.0180
   2144 H            9.2801     3.4648     9.1988 H       0      f0     0.0133
   2145 H            9.0294     3.5137     6.3537 H       0      f0     0.0176
   2146 C            9.1329     5.5715     8.3783 C      43     f43    -0.0183
   2147 C            9.4230     4.7095     9.3635 C      43     f43    -0.0158
   2148 C           10.0143     5.3922    10.4850 C      43     f43     0.0034
   2149 H           12.7866     5.3072    10.3312 H       0      f0     0.0189
   2150 C           12.5907     5.9421     7.1846 C       0      f0    -0.0257
   2151 C           12.8620     2.8885    10.4635 C       0      f0     0.0033
   2152 C           13.4427     4.3560    10.0851 C       0      f0    -0.0304
   2153 C           13.3548     4.9506     7.7377 C       0      f0     0.0013
   2154 C           13.8656     4.2949     8.5994 C       0      f0     0.0021
   2155 H           14.2353     4.4484    10.9054 H       0      f0     0.0210
   2156 C          -14.6252     8.8383     8.2197 C       0      f0     0.0029
   2157 C          -14.2461     7.7963     9.0989 C      44     f44    -0.0031
   2158 C          -13.9503     8.5332    10.3818 C      44     f44    -0.0046
   2159 C          -13.4333     7.2139     6.9055 C       0      f0    -0.0191
   2160 H          -13.9027     6.1874     6.6520 H       0      f0     0.0222
   2161 C          -13.1621     7.1299     8.3037 C      44     f44     0.0008
   2162 C          -12.6575     8.9984     9.8954 C      44     f44    -0.0008
   2163 C          -12.1492     8.1694     8.7086 C      44     f44     0.0007
   2164 H          -10.5205     6.5158     9.1203 H       0      f0     0.0211
   2165 C          -10.9919     6.1992    10.1271 C       0      f0    -0.0144
   2166 C          -10.9126     8.5297     8.0639 C      44     f44    -0.0041
   2167 C          -10.2725     8.0517     6.7337 C      26     f26    -0.0006
   2168 C          -10.1460     9.5307     8.7403 C      44     f44    -0.0024
   2169 C           -9.0043     8.1925    10.3176 C       0      f0     0.0027
   2170 C           -8.7866     9.3262     9.4647 C       0      f0    -0.0070
   2171 C           -8.4007     7.1748     9.4990 C       0      f0    -0.0153
   2172 H           -8.2467     7.6739     7.0588 H       0      f0     0.0167
   2173 H           -7.7489     7.6241     8.8242 H       0      f0     0.0191
   2174 H           -7.2925    10.0369     7.1279 H       0      f0     0.0214
   2175 C           -7.3489     9.7418     9.5219 C       0      f0    -0.0043
   2176 C           -6.8104    10.0599     8.1135 C       0      f0    -0.0176
   2177 C           -6.6779     9.8304    10.8162 C       0      f0     0.0042
   2178 C           -5.5421     9.7045     7.7204 C       0      f0    -0.0228
   2179 C           -5.2045     7.2137    10.4805 C       6      f6    -0.0050
   2180 H           -4.8856     9.6033     8.3358 H       0      f0     0.0292
   2181 C           -4.6767     8.5042    10.7626 C       6      f6    -0.0006
   2182 C           -4.0074     6.6345     9.8721 C       6      f6    -0.0057
   2183 C           -3.3151     8.6414     9.9387 C       6      f6     0.0013
   2184 C           -3.0112    10.0696     9.7143 C       6      f6    -0.0182
   2185 C           -2.6595     6.6463    10.3303 C       6      f6    -0.0023
   2186 C           -2.3172     9.7760     7.4714 C       0      f0    -0.0032
   2187 C           -2.1865     7.9473     9.8927 C       6      f6    -0.0027
   2188 C           -1.1405     8.0564     8.6148 C       0      f0    -0.0177
   2189 C           -0.9769     9.0337     7.7906 C       0      f0     0.0060
   2190 H           -0.2954     7.1354     8.5783 H       0      f0     0.0145
   2191 C            0.1873     8.9902     6.9526 C       0      f0    -0.0234
   2192 H            1.0517     8.9842     7.5709 H       0      f0     0.0157
   2193 H            1.3843     7.3784     9.1002 H       0      f0     0.0149
   2194 C            1.9368     6.4517     8.9653 C       0      f0    -0.0207
   2195 C            3.2257     6.5078     8.2158 C       0      f0    -0.0018
   2196 H            3.2340     9.4966     8.7424 H       0      f0     0.0194
   2197 C            4.1144     9.5219     9.3611 C       0      f0    -0.0323
   2198 C            4.3537     6.7806     9.0035 C       0      f0    -0.0023
   2199 C            4.6333     8.0344     9.8359 C       0      f0     0.0031
   2200 H            4.8799    10.0041     8.6931 H       0      f0     0.0233
   2201 C            6.5504     8.0180     7.2996 C       0      f0    -0.0008
   2202 C            7.4131     8.0924     8.1106 C       0      f0    -0.0001
   2203 C            7.9392     9.0409     9.9167 C      43     f43     0.0099
   2204 C            8.4654     8.1915     8.8802 C      43     f43    -0.0032
   2205 C            9.2718     6.9102     9.0097 C      43     f43     0.0040
   2206 C           10.2717     6.9650    10.2068 C      43     f43    -0.0188
   2207 C           11.2696     9.7255     6.4709 C       0      f0     0.0026
   2208 H           11.1398     7.5251     9.7808 H       0      f0     0.0172
   2209 H           11.8485     6.4288     7.7406 H       0      f0     0.0203
   2210 C           11.9755     9.9726     8.8194 C       0      f0    -0.0172
   2211 C           12.0027     9.3454     7.5859 C       0      f0    -0.0201
   2212 H           12.4857     9.5143     9.7144 H       0      f0     0.0173
   2213 H           12.5858     8.4452     7.4921 H       0      f0     0.0177
   2214 H           15.0662    10.4141     6.4294 H       0      f0     0.0136
   2215 C          -14.9146    12.2706     7.7464 C       3      f3    -0.0028
   2216 C          -14.4959    11.0576     8.4381 C       0      f0    -0.0019
   2217 C          -14.8154     9.8920     7.6097 C       0      f0    -0.0171
   2218 C          -14.2689    11.1071     9.9189 C       0      f0     0.0066
   2219 C          -13.0958    11.4890    10.5150 C       0      f0    -0.0371
   2220 H          -13.2066    12.7710    10.2583 H       0      f0     0.0219
   2221 C          -12.2964    10.3950     9.8244 C      44     f44     0.0036
   2222 H          -12.6144    10.9613     6.3423 H       0      f0     0.0236
   2223 C          -10.7812    10.5914     9.3419 C      44     f44     0.0036
   2224 C          -10.1868    12.8117    10.0748 C       0      f0    -0.0003
   2225 C           -9.8245    11.6115     9.3559 C       0      f0    -0.0184
   2226 C           -9.8178    13.7498     6.8576 C       0      f0     0.0000
   2227 C           -9.0585    13.8296     9.8648 C       0      f0    -0.0009
   2228 H           -8.8286    11.5929     8.8885 H       0      f0     0.0218
   2229 C           -8.5848    13.0611     7.3951 C      13     f13    -0.0021
   2230 C           -8.3092    13.7519     8.5914 C      13     f13    -0.0036
   2231 H           -7.2198    12.1663    10.2403 H       0      f0     0.0211
   2232 C           -6.7622    13.5186     8.8819 C      13     f13     0.0034
   2233 C           -6.3520    12.7009     9.7268 C       0      f0    -0.0190
   2234 C           -4.8921    12.2665     9.5898 C       6      f6     0.0029
   2235 C           -4.4033    10.9900    10.4573 C       6      f6    -0.0007
   2236 C           -3.9199    12.8684     8.6762 C       6      f6    -0.0049
   2237 C           -2.7930    12.1505     8.1510 C       6      f6    -0.0025
   2238 C           -2.6355    10.7302     8.3939 C       6      f6     0.0008
   2239 H           -2.3505    10.2692    10.5239 H       0      f0     0.0250
   2240 H           -2.1181    13.2394    10.3395 H       0      f0     0.0201
   2241 C           -1.9127    12.9239     7.4438 C       0      f0    -0.0040
   2242 C           -1.2907    12.4337    10.1643 C      21     f21    -0.0157
   2243 C           -0.7024    12.5520     7.5806 C       0      f0     0.0006
   2244 C           -0.3477    12.3807     9.0655 C      21     f21     0.0031
   2245 C            0.3546    12.4933     6.7887 C      46     f46     0.0009
   2246 C            0.7722    11.6795     9.6440 C      21     f21    -0.0044
   2247 C            1.6556    13.1474     7.1811 C      46     f46     0.0009
   2248 C            2.2151    12.1238     9.2598 C       0      f0    -0.0049
   2249 C            2.4395    13.3256     8.3423 C       0      f0     0.0076
   2250 C            3.2749    12.1560    10.3052 C       0      f0    -0.0003
   2251 C            4.2601    10.8515    10.0551 C       0      f0    -0.0173
   2252 C            5.5168    11.6854     9.5515 C       0      f0    -0.0080
   2253 C            5.7179    13.1329     9.8746 C       0      f0     0.0040
   2254 C            5.7145    13.9745     8.6006 C       0      f0    -0.0019
   2255 H            5.6182    11.2364     7.2757 H       0      f0     0.0215
   2256 C            5.8182    13.2183     7.3381 C       0      f0     0.0002
   2257 C            6.5197    11.8523     7.0171 C       0      f0    -0.0372
   2258 C            6.9717    11.4676     9.0307 C       0      f0    -0.0035
   2259 C            7.4090    10.1673     9.4882 C       0      f0    -0.0037
   2260 C            7.5967    12.1614     7.8875 C       0      f0     0.0048
   2261 C            8.6526    13.7176     8.3304 C      47     f47    -0.0055
   2262 C            8.9294    12.5054     7.4883 C       0      f0    -0.0147
   2263 C            9.0447    13.8815     9.6015 C      47     f47     0.0028
   2264 C            9.9002    12.9480    10.3277 C       0      f0    -0.0006
   2265 C           10.2186    11.6104     7.6974 C       0      f0     0.0037
   2266 C           10.8005    11.8639    10.1442 C       0      f0    -0.0017
   2267 C           11.1975    11.2057     8.9230 C       0      f0    -0.0017
   2268 H           11.8378    14.0675     7.8951 H       0      f0     0.0400
   2269 C           11.9928    13.9890     6.7770 C       0      f0    -0.0514
   2270 H           13.5525    11.7882     8.8573 H       0      f0     0.0209
   2271 C           13.8798    12.1326     9.8825 C       0      f0    -0.0124
   2272 C           14.6328    13.7920     9.5168 C       3      f3    -0.0131
   2273 C           14.8941    11.2613    10.7031 C       0      f0    -0.0191
   2274 C           15.1478    13.5790     8.1712 C       3      f3     0.0004
   2275 H          -14.8076   -14.1615    10.0956 H       0      f0     0.0153
   2276 C          -14.7584   -13.3447    12.9138 C       0      f0    -0.0067
   2277 C          -13.3420   -13.9215    13.0446 C       0      f0    -0.0024
   2278 H          -12.5906   -11.5065    11.8616 H       0      f0     0.0226
   2279 C          -12.1908   -13.3647    12.5436 C       0      f0     0.0011
   2280 C          -12.0474   -11.8531    12.7618 C       0      f0    -0.0518
   2281 H          -12.1954   -11.9327    13.9996 H       0      f0     0.0252
   2282 C          -11.8448   -14.1444    11.3765 C       0      f0     0.0004
   2283 H          -10.9068   -11.8223    12.6413 H       0      f0     0.0213
   2284 H           -9.1991   -13.9430    12.0395 H       0      f0     0.0225
   2285 H           -9.1741   -12.3048    13.5112 H       0      f0     0.0197
   2286 C           -8.8149   -13.7189    14.6360 C       0      f0     0.0012
   2287 C           -8.7249   -13.9818    11.1515 C       0      f0    -0.0242
   2288 C           -8.4010   -12.8558    13.9632 C       0      f0    -0.0196
   2289 C           -7.0266   -12.2973    11.8373 C      40     f40    -0.0052
   2290 C           -6.8414   -12.6747    13.2692 C      40     f40    -0.0145
   2291 C           -6.1050   -10.3707    12.9951 C      40     f40    -0.0055
   2292 H           -6.2637   -13.6357    13.1571 H       0      f0     0.0178
   2293 C           -6.1038   -11.1639    11.6019 C      40     f40     0.0025
   2294 C           -6.0029   -11.5182    13.9780 C      40     f40    -0.0031
   2295 H           -4.1025   -13.3304    13.1415 H       0      f0     0.0184
   2296 C           -3.0947   -13.6663    13.6404 C      48     f48    -0.0115
   2297 C           -2.1559   -12.5776    13.5749 C      48     f48     0.0053
   2298 C           -1.9953   -11.1985    12.9986 C       0      f0     0.0006
   2299 C           -1.7173   -10.6834    11.6959 C       0      f0    -0.0209
   2300 C           -0.9449   -13.1737    14.2301 C      48     f48    -0.0006
   2301 C           -0.2542   -12.4279    10.8007 C       0      f0    -0.0038
   2302 C            0.1772   -13.1167    13.2508 C      48     f48    -0.0066
   2303 C            0.5645   -12.3089    12.1793 C       0      f0    -0.0048
   2304 C            1.4021   -11.1155    12.0504 C       0      f0    -0.0185
   2305 H            1.7900   -11.8849    14.0498 H       0      f0     0.0222
   2306 C            2.2795   -12.4501    14.7971 C       0      f0    -0.0321
   2307 H            3.0367   -13.2821    14.4657 H       0      f0     0.0160
   2308 H            2.8559   -12.4443    11.8610 H       0      f0     0.0257
   2309 C            3.4869   -10.3357    12.0997 C       0      f0     0.0152
   2310 C            3.7038   -11.8660    11.8856 C       0      f0    -0.0642
   2311 H            3.8665   -11.5711    10.7184 H       0      f0     0.0194
   2312 H            4.5149   -12.1311    12.4743 H       0      f0     0.0210
   2313 H            4.7468   -12.1383    14.0654 H       0      f0     0.0153
   2314 H            5.5224   -13.6424    11.6396 H       0      f0     0.0114
   2315 C            5.4492   -12.5552   -14.9541 C       4      f4    -0.0156
   2316 H            6.2258   -12.2972    11.8147 H       0      f0     0.0091
   2317 C            6.4773   -11.0568    11.4919 C       0      f0    -0.0162
   2318 H            6.8156   -13.8749    13.1714 H       0      f0     0.0154
   2319 C            7.6362   -10.7162    12.1317 C       0      f0    -0.0090
   2320 C            7.7689   -11.2289    14.7425 C       0      f0     0.0002
   2321 C            8.3204   -11.4963    13.3781 C       0      f0     0.0056
   2322 C            9.4392   -12.0146    13.2545 C       0      f0     0.0226
   2323 C           10.3965   -12.7305    12.9683 C       0      f0     0.0049
   2324 C           10.7980   -13.6524    14.2281 C       0      f0    -0.0102
   2325 C           11.1811   -12.9318    11.6352 C       0      f0    -0.0090
   2326 H           11.8422   -11.9736    11.5868 H       0      f0     0.0252
   2327 C           12.5204   -13.6459    11.1528 C       0      f0    -0.0062
   2328 H           13.7475   -10.8081    13.4026 H       0      f0     0.0459
   2329 C           14.7686   -10.7379    13.2796 C       0      f0    -0.0193
   2330 C           15.1327   -12.2512    13.7652 C       0      f0    -0.0057
   2331 C          -14.8132    -7.0169    14.3936 C       0      f0     0.1935
   2332 C          -14.4514    -9.6924    13.5172 C       0      f0     0.0046
   2333 C          -13.9740    -7.0837    13.0469 C       0      f0    -0.0519
   2334 H          -13.2416    -8.0232    12.7260 H       0      f0     0.0134
   2335 C          -13.1883    -9.6356    14.2644 C       0      f0    -0.0300
   2336 H          -13.1801    -8.2522    10.8596 H       0      f0     0.0176
   2337 H          -12.4553    -8.7156    14.1060 H       0      f0     0.0125
   2338 H          -12.4900    -5.2200    12.8021 H       0      f0     0.0237
   2339 H          -10.8805    -8.5171    12.6929 H       0      f0     0.0151
   2340 C           -9.9932    -7.8384    12.7566 C       0      f0    -0.0163
   2341 C          -10.0369    -7.6567    11.2950 C       0      f0     0.0003
   2342 C           -9.4252    -8.0749    14.1265 C       0      f0    -0.0027
   2343 C           -8.5604    -6.9384    14.5258 C       0      f0    -0.0011
   2344 C           -8.0035    -6.1147    11.6084 C       0      f0     0.0019
   2345 C           -6.9442    -7.0670    11.7593 C       0      f0    -0.0081
   2346 C           -6.5373    -9.1125    13.1431 C      40     f40    -0.0010
   2347 C           -6.3515    -8.2243    14.5322 C       0      f0    -0.0393
   2348 C           -6.2731    -8.3723    11.9689 C      40     f40    -0.0063
   2349 C           -5.7781    -8.9485    10.6999 C      40     f40     0.0038
   2350 H           -5.5616    -7.7430    14.2309 H       0      f0     0.0226
   2351 C           -3.0550    -7.5180    13.7589 C       0      f0     0.0276
   2352 C           -3.2257    -6.5141    12.6217 C       0      f0    -0.0293
   2353 C           -2.3030    -8.7711    13.8420 C       0      f0     0.0107
   2354 H           -1.6039    -9.5942    11.6047 H       0      f0     0.0177
   2355 C           -1.8430   -10.0597    13.9809 C       0      f0     0.0018
   2356 C           -1.9911    -6.2117    12.0098 C      20     f20     0.0035
   2357 C           -0.8178    -7.1258    12.1487 C      20     f20     0.0009
   2358 C           -0.4958    -9.7459    14.5259 C       0      f0    -0.0233
   2359 C           -0.2425    -7.7588    10.8805 C      20     f20     0.0038
   2360 C            0.0329    -8.4124    14.5620 C       0      f0     0.0278
   2361 C            0.0205    -7.9170    13.1163 C      20     f20     0.0054
   2362 C            0.4585    -8.7529    11.0886 C      20     f20    -0.0001
   2363 C            1.0400    -8.6952    12.3727 C      20     f20     0.0174
   2364 C            2.1167    -9.9049    12.2149 C       0      f0     0.0099
   2365 H            2.5683    -9.5256   -14.8521 H       0      f0     0.0325
   2366 C            3.8459    -9.0876    11.5166 C      41     f41    -0.0390
   2367 O            4.6793    -7.8832    13.8198 O       0      f0    -0.5823
   2368 C            4.8380    -8.3593    12.4256 C      41     f41     0.2789
   2369 H            5.5827    -7.4189    14.0487 H       0      f0     0.2677
   2370 C            5.9059    -8.0612    11.6515 C      41     f41    -0.0755
   2371 C            7.0581    -7.1757    12.0079 C       0      f0     0.0188
   2372 C            8.1260    -6.3814    12.1710 C       0      f0    -0.0286
   2373 H            7.9133    -9.8279    11.5580 H       0      f0     0.0264
   2374 H            9.0721    -6.6736    12.3799 H       0      f0     0.0379
   2375 H           10.8976    -9.6207    11.4578 H       0      f0     0.0796
   2376 O           10.7300    -9.1409    13.9905 O       0      f0    -0.5209
   2377 C           10.6539    -7.9792    14.3466 C       0      f0     0.3738
   2378 C           10.6140    -6.6367    14.7906 C       0      f0    -0.1123
   2379 H           12.6443    -6.0103    13.8697 H       0      f0     0.0983
   2380 H           15.1296    -3.0020    11.0652 H       0      f0     0.0274
   2381 C          -15.0441    -2.7744    14.6379 C       0      f0    -0.0511
   2382 C          -14.4114    -5.8943    12.4024 C       0      f0     0.1722
   2383 C          -14.0077    -5.2762    11.2884 C       0      f0    -0.0438
   2384 C          -11.3281    -5.0831    12.7781 C       0      f0    -0.0115
   2385 C          -11.0561    -5.8622    14.2280 C       0      f0     0.0118
   2386 H          -10.9237    -2.5905    13.0998 H       0      f0     0.2044
   2387 C          -10.7452    -4.8727    11.6758 C       0      f0    -0.0018
   2388 C           -9.6579    -2.0389    14.5773 C      28     f28     0.2366
   2389 C           -9.6725    -5.8150    14.5758 C       0      f0    -0.0001
   2390 C           -8.6709    -2.9442    14.4935 C      28     f28    -0.0904
   2391 H           -9.0616    -3.8481    13.9054 H       0      f0     0.0364
   2392 C           -8.2548    -4.5691    11.1154 C       0      f0    -0.0148
   2393 C           -7.4975    -3.6370    11.6913 C       0      f0    -0.0055
   2394 C           -6.7118    -2.8928    12.3065 C       0      f0    -0.0031
   2395 H           -5.9874    -3.6979    14.6489 H       0      f0     0.0232
   2396 C           -6.3305    -2.6496    14.5632 C      28     f28    -0.0200
   2397 C           -5.8801    -2.2184    13.0994 C       0      f0     0.0009
   2398 H           -4.3103    -5.4679    11.2703 H       0      f0     0.0166
   2399 H           -4.0939    -5.9107    12.7695 H       0      f0     0.0177
   2400 H           -1.9577    -3.3482    13.7372 H       0      f0     0.0199
   2401 C           -1.1728    -2.7326    14.1962 C       0      f0    -0.0279
   2402 C            0.0074    -3.6117    14.5248 C       0      f0     0.0016
   2403 C            1.2316    -3.6721    13.6770 C       0      f0     0.0007
   2404 C            1.4830    -2.5346    12.8161 C       0      f0     0.0264
   2405 C            1.5669    -2.7637    11.0779 C       0      f0    -0.0072
   2406 H            1.3567    -4.8478    13.5167 H       0      f0     0.0527
   2407 H            2.7374    -2.5459    11.0775 H       0      f0     0.0572
   2408 H            4.3812    -3.3529    12.0367 H       0      f0     0.0984
   2409 C            5.0642    -2.6019    11.6844 C       0      f0     0.0065
   2410 C            6.4016    -3.0866    11.0925 C       0      f0     0.0301
   2411 C            6.5687    -4.4158    10.9708 C       0      f0    -0.0569
   2412 C            7.6984    -2.1590    11.2585 C       0      f0    -0.0079
   2413 C            7.9239    -5.0248    11.4530 C       0      f0     0.0119
   2414 C            8.9262    -4.0708    11.5452 C       0      f0    -0.0251
   2415 C            9.0280    -2.5684    11.6598 C       0      f0    -0.0028
   2416 C            9.5519    -5.6463   -14.9039 C       0      f0     0.0405
   2417 H            9.8150    -4.3252    12.0630 H       0      f0     0.0283
   2418 C           11.2793    -4.5299    14.3347 C       0      f0     0.0105
   2419 C           11.6872    -5.8694    14.2216 C       0      f0    -0.0002
   2420 C           12.2270    -3.3471    14.4698 C       0      f0    -0.0403
   2421 H           12.8624    -3.6056    13.7539 H       0      f0     0.0525
   2422 O           14.7178    -5.7871    13.7145 O       0      f0    -0.4518
   2423 H          -14.8572    -3.6861    14.2655 H       0      f0     0.0779
   2424 C          -14.9987    -1.9400    11.1696 C       0      f0    -0.0138
   2425 C          -15.1261     1.1357    12.7390 C       0      f0    -0.0022
   2426 C          -14.4752    -1.5789    13.8208 C       0      f0     0.0071
   2427 H          -13.1340     1.4680    10.4434 H       0      f0     0.0202
   2428 C          -13.6591     0.4898    12.7614 C       0      f0    -0.0121
   2429 C          -13.3539    -0.5348    13.8046 C       0      f0     0.0580
   2430 C          -13.0273     0.5643    11.3612 C       0      f0    -0.0126
   2431 H          -12.0967     1.7233    12.3344 H       0      f0     0.0252
   2432 O          -11.1394    -2.0570    14.0812 O       0      f0    -0.5532
   2433 H          -10.5925    -0.2187    12.3992 H       0      f0     0.0437
   2434 H          -10.9295     1.2686    13.5341 H       0      f0     0.0266
   2435 C          -10.3367     0.8150    11.8448 C       0      f0    -0.0244
   2436 C           -9.2344     2.0252    12.0203 C       0      f0    -0.0119
   2437 H           -8.0965     2.2458    12.4119 H       0      f0     0.0164
   2438 C           -5.5607    -0.3202    11.3056 C       0      f0    -0.0014
   2439 C           -5.1903    -0.8238    12.7797 C       0      f0    -0.0015
   2440 C           -4.6423    -0.1388    13.5634 C       0      f0    -0.0066
   2441 H           -4.6325     1.6438    10.9551 H       0      f0     0.0186
   2442 C           -4.4246     0.6033    10.9103 C       0      f0    -0.0112
   2443 C           -4.0542     0.7513    14.1092 C       0      f0    -0.0112
   2444 C           -3.3429     1.7582    14.6465 C       0      f0    -0.0254
   2445 C           -3.0738     0.2793    11.6012 C       0      f0    -0.0148
   2446 H           -2.9406     0.3643    12.7393 H       0      f0     0.0193
   2447 H           -1.7501     0.1945    14.6211 H       0      f0     0.0218
   2448 H           -0.7524     0.2016    10.6543 H       0      f0     0.0127
   2449 C           -0.7205    -1.5332    14.5589 C       0      f0     0.0050
   2450 C           -0.8126    -0.1310    14.9590 C       0      f0    -0.0263
   2451 C            0.4593     0.5813    14.9002 C       0      f0     0.0052
   2452 H            1.9555     2.1187    11.5467 H       0      f0     0.0314
   2453 O            4.1036     0.1639    13.0486 O       0      f0    -0.4634
   2454 C            5.2830     0.4348    11.0890 C      25     f25    -0.0040
   2455 C            5.4137     0.2546    12.7054 C      25     f25     0.2772
   2456 C            6.6284     0.5418    13.3362 C      25     f25    -0.0640
   2457 C            6.9101     1.1156    14.9814 C      25     f25     0.0148
   2458 C            7.8006     0.8729    12.4074 C      25     f25     0.0036
   2459 C            7.4848     1.3708    11.0500 C      25     f25    -0.0204
   2460 C            8.9849     1.0408    13.1874 C      25     f25    -0.0007
   2461 C            9.2233     0.7989    14.7039 C      25     f25    -0.0010
   2462 C           10.3571    -1.9516    11.6362 C       0      f0    -0.0087
   2463 C           10.9702     1.7613    12.1522 C       0      f0    -0.0008
   2464 C           10.9955    -1.8980    12.7188 C       0      f0     0.0017
   2465 H           12.2932    -1.1572    14.0689 H       0      f0     0.0176
   2466 C           11.6029    -1.9565    13.8147 C       0      f0    -0.0226
   2467 C           12.1203     1.9949    11.0447 C       0      f0    -0.0016
   2468 C           12.5220     0.3852    10.9370 C       0      f0    -0.0018
   2469 C           13.4890     0.1373    11.8831 C       0      f0    -0.0033
   2470 C           14.3625    -0.1525    12.7459 C       0      f0    -0.0090
   2471 C          -15.0453    -1.4154    12.5366 C       0      f0     0.0025
   2472 C          -14.9060     2.3644    13.5076 C       0      f0    -0.0030
   2473 H          -14.6033     4.8789    14.6478 H       0      f0     0.0195
   2474 C          -13.5424     3.0003    13.6674 C       0      f0    -0.0031
   2475 C          -13.1130     3.2440   -14.9832 C      22     f22    -0.0047
   2476 H          -12.5183     4.6085    12.1147 H       0      f0     0.0206
   2477 C          -12.4053     2.5881    12.7029 C       0      f0    -0.0197
   2478 C          -12.4080     3.6214    11.8688 C       0      f0    -0.0185
   2479 C          -11.0089     6.0591    14.1487 C      22     f22    -0.0055
   2480 C          -10.4548     2.2564    14.1669 C      22     f22    -0.0198
   2481 C           -9.9048     3.3877    12.1659 C       0      f0     0.0012
   2482 C           -9.9987     4.9621    14.3025 C      22     f22     0.0140
   2483 C          -10.0470     3.6015    13.5702 C      22     f22    -0.0022
   2484 C           -9.3268     4.4036    11.2296 C       0      f0    -0.0200
   2485 C           -8.4947     5.2559    14.8365 C       0      f0    -0.0962
   2486 H           -8.2682     4.6268    11.4566 H       0      f0     0.0202
   2487 C           -7.1654     4.4272    14.6443 C       0      f0    -0.0304
   2488 H           -7.5803     4.4036    13.5149 H       0      f0     0.0197
   2489 H           -6.3109     5.5043    11.0841 H       0      f0     0.0149
   2490 H           -4.7426     3.4316    12.5448 H       0      f0     0.0231
   2491 H           -4.4707     5.0486    11.4844 H       0      f0     0.0227
   2492 C           -4.3741     3.8931    11.6100 C       0      f0    -0.0548
   2493 C           -2.7150     3.7815    11.7890 C       0      f0    -0.0002
   2494 C           -2.6381     2.9252    14.1762 C       0      f0    -0.0003
   2495 C           -2.7192     4.2549    14.8361 C       0      f0    -0.0174
   2496 C           -2.5258     5.5152    14.0917 C       0      f0     0.0008
   2497 C           -2.0275     2.9465    12.7690 C       0      f0    -0.0032
   2498 C           -1.8796     4.2085    10.9384 C       0      f0    -0.0009
   2499 C           -0.6165     3.2902    12.6458 C       0      f0    -0.0199
   2500 C           -0.5223     3.9100    11.4583 C       0      f0    -0.0221
   2501 H            0.1522     2.7487    13.1514 H       0      f0     0.0228
   2502 H            1.9956     4.5005    14.5333 H       0      f0     0.0234
   2503 C            2.1969     3.7095    13.7554 C       0      f0    -0.0216
   2504 C            2.6905     4.4822    12.6295 C       0      f0    -0.0006
   2505 C            2.8225     2.4748    11.0371 C      19     f19    -0.0014
   2506 C            2.9456     2.5395    13.9922 C       0      f0    -0.0051
   2507 C            3.1732     5.8745    12.9422 C       0      f0    -0.0246
   2508 C            3.3319     3.7059    11.3470 C      19     f19    -0.0023
   2509 H            3.8120     2.1405    13.5656 H       0      f0     0.0783
   2510 C            4.4256     5.9468    14.7931 C       0      f0    -0.0069
   2511 C            4.5270     5.8470    13.4206 C       0      f0     0.0022
   2512 C            5.7850     5.7661    12.6355 C       0      f0    -0.0064
   2513 H            6.2723     5.1960    10.4744 H       0      f0     0.0216
   2514 H            7.2044     3.3642    13.6270 H       0      f0     0.0238
   2515 H            7.1806     3.4228    11.7048 H       0      f0     0.0203
   2516 C            7.2057     5.4661    13.0435 C       0      f0     0.0028
   2517 C            7.6754     3.9340    12.7824 C       0      f0    -0.0307
   2518 C            9.1800     3.6376    12.7281 C       0      f0     0.0033
   2519 C            9.8923     5.0881    12.8519 C       0      f0     0.0013
   2520 C            9.6829     2.1058    12.4111 C       0      f0    -0.0061
   2521 C            9.7679     4.4899    11.5811 C       0      f0    -0.0072
   2522 C           13.5534     5.4340    14.2622 C       0      f0     0.0012
   2523 C           13.4381     3.9850    14.7587 C       0      f0    -0.0011
   2524 C           14.3460     3.2171    14.2322 C       0      f0    -0.0071
   2525 C           14.9120     5.7137    14.0599 C       0      f0    -0.0154
   2526 C           15.0205     8.6842    10.7918 C       0      f0    -0.0022
   2527 C          -14.8139     6.9813    13.5108 C       0      f0    -0.0198
   2528 H          -13.8811     7.2046    12.9880 H       0      f0     0.0198
   2529 C          -13.3121     8.2291    14.7713 C       0      f0    -0.0075
   2530 C          -12.3440     8.0626    14.8126 C       0      f0    -0.0018
   2531 C          -11.1561     6.3328    12.8073 C       0      f0    -0.0034
   2532 C          -10.8383     6.9984    11.5424 C       0      f0     0.0023
   2533 C           -9.8990     8.0472    11.6289 C       0      f0     0.0024
   2534 C           -9.7096     9.1631    12.3555 C       0      f0     0.0036
   2535 C           -7.8438     6.4951    14.5729 C       0      f0     0.3536
   2536 H           -7.7757     8.7191    12.5764 H       0      f0     0.0832
   2537 C           -7.2736     9.6334    12.1478 C       0      f0    -0.0421
   2538 O           -7.3655     7.6204    14.3758 O       0      f0    -0.5546
   2539 H           -6.3665     9.4920    12.6790 H       0      f0     0.0464
   2540 C           -6.0572     6.4798    11.5573 C       0      f0    -0.0147
   2541 C           -5.2513     9.7810    10.7171 C       6      f6    -0.0032
   2542 C           -5.2717     6.9007    12.6127 C       0      f0     0.0331
   2543 H           -5.1996     7.9344    14.1674 H       0      f0     0.0823
   2544 C           -4.6527     7.3055    13.5852 C       0      f0    -0.0264
   2545 C           -3.2125     6.7595    13.8949 C       0      f0     0.0071
   2546 C           -2.0846     6.9307    14.7593 C       0      f0    -0.0061
   2547 C            1.6215    10.0610    13.7145 C       0      f0    -0.0228
   2548 H            1.7852    10.1644    10.8215 H       0      f0     0.0217
   2549 H            2.2349     9.2317    13.2661 H       0      f0     0.0167
   2550 H            3.2613     6.4868    11.9890 H       0      f0     0.0194
   2551 H            4.9539     8.9045    12.2398 H       0      f0     0.0122
   2552 C            5.2151     8.0823    11.2202 C       0      f0    -0.0140
   2553 C            5.7665     6.8072    11.6243 C       0      f0    -0.0059
   2554 H            6.0010     8.6778    13.6550 H       0      f0     0.0125
   2555 C            6.7978     9.0685    14.4680 C       0      f0    -0.0079
   2556 H            7.6327     7.5009    13.2987 H       0      f0     0.0245
   2557 H            8.3369     9.0144    12.3074 H       0      f0     0.0349
   2558 C            8.1305     6.5649    13.1206 C       0      f0    -0.0192
   2559 C            8.3919     8.7515    11.2532 C      43     f43    -0.0226
   2560 C            9.5333     7.9912    11.2702 C      43     f43     0.0154
   2561 C            9.6423     6.4181    13.3019 C       0      f0     0.0076
   2562 O           10.1896    10.0392    14.4041 O       0      f0    -0.4444
   2563 C           10.2060     7.5963    12.4412 C       0      f0    -0.0457
   2564 C           10.1774     8.6924    13.3506 C       0      f0     0.0992
   2565 C           11.3149     9.1730    14.0308 C       0      f0     0.1759
   2566 C           12.8411     9.6058    13.6277 C       0      f0    -0.0315
   2567 H           13.0698     8.2583    11.0184 H       0      f0     0.0174
   2568 C           13.7520     8.5521    13.1734 C       0      f0     0.0005
   2569 C           13.9481     8.4743    11.5614 C       0      f0    -0.0206
   2570 C           14.6196     7.9314    14.1111 C       0      f0     0.0032
   2571 H          -14.4312    10.2719    14.1894 H       0      f0     0.0210
   2572 C          -14.1588    11.4956    14.3294 C       0      f0    -0.0162
   2573 C          -12.9885    12.1287    13.4054 C       0      f0    -0.0047
   2574 C          -13.2253    13.3853    13.1302 C       0      f0    -0.0001
   2575 H          -13.0339    11.2248    11.4341 H       0      f0     0.0260
   2576 C          -11.5555    11.8507    13.6598 C       0      f0    -0.0014
   2577 C          -11.0477    12.9171    11.1223 C       0      f0    -0.0057
   2578 C          -11.1999    12.6677    14.6007 C       0      f0    -0.0035
   2579 C          -10.7945    12.1286    12.3705 C       0      f0     0.0042
   2580 C           -9.4141    10.2924    13.2021 C       0      f0     0.0058
   2581 C           -9.5377    11.7947    12.9041 C       0      f0    -0.0209
   2582 H           -8.5814    12.1871    12.6870 H       0      f0     0.0211
   2583 H           -6.4866    10.7321   -14.9904 H       0      f0     0.0286
   2584 H           -5.2327    11.8536    13.6014 H       0      f0     0.0196
   2585 C           -5.4021    11.6715    12.4003 C       0      f0    -0.0209
   2586 C           -4.2295    11.3623    11.8213 C       0      f0    -0.0007
   2587 H           -3.2846    12.9896   -14.9048 H       0      f0     0.0177
   2588 C           -2.9820    10.8223    14.2248 C      21     f21    -0.0069
   2589 C           -3.0476    11.4717    12.9593 C      21     f21    -0.0048
   2590 C           -2.6630    13.8178    14.5641 C      48     f48    -0.0180
   2591 C           -1.6590    11.4883    12.5024 C      21     f21    -0.0015
   2592 C           -1.6396    10.6080    14.5995 C      21     f21     0.0032
   2593 C           -1.2064    13.8779    14.8259 C      48     f48    -0.0035
   2594 C           -1.0990    11.6301    11.1667 C      21     f21    -0.0019
   2595 C           -1.0404    10.3880    13.2871 C      21     f21    -0.0036
   2596 C           -0.1149    13.1104    14.3126 C      48     f48    -0.0033
   2597 C            0.3096    11.1169    10.8751 C      21     f21     0.0035
   2598 C            0.5420    10.5284    12.9802 C      21     f21     0.0099
   2599 C            0.7412    13.9513    13.4985 C      48     f48    -0.0018
   2600 H            0.9915    13.8125    11.3164 H       0      f0     0.0238
   2601 C            1.1063    10.3341    11.6911 C      21     f21    -0.0207
   2602 C            1.4551    13.4392    12.3667 C       0      f0    -0.0115
   2603 C            1.9777    10.4689    14.9329 C       0      f0     0.0052
   2604 C            2.8558    13.0598    12.3569 C       0      f0    -0.0141
   2605 H            3.2485    13.8189    13.3538 H       0      f0     0.0101
   2606 C            3.7513    13.2355    11.1962 C       0      f0    -0.0045
   2607 H            4.8161    10.8986    11.0144 H       0      f0     0.0207
   2608 C            5.3519    13.6887    11.2215 C       0      f0    -0.0373
   2609 H            5.6325    13.0046    11.9658 H       0      f0     0.0219
   2610 C            6.0637    13.2835    14.8667 C       0      f0    -0.0101
   2611 C            6.8440    12.8766    13.8710 C       0      f0    -0.0053
   2612 C            7.0365    10.3228    14.2128 C       0      f0     0.0249
   2613 C            7.7470    13.8461    13.0062 C       0      f0    -0.0190
   2614 C            7.3337    11.4722    13.5609 C       0      f0    -0.0200
   2615 C            8.5623    13.4595    12.2305 C       0      f0     0.0015
   2616 H            8.3238    11.6867    13.1216 H       0      f0     0.0513
   2617 C            9.5811    12.9753    11.7395 C       0      f0    -0.0007
   2618 C           10.5079    13.5026    14.8411 C       0      f0     0.0089
   2619 C           10.9080    12.4759    12.3464 C       0      f0     0.0153
   2620 C           11.2614    12.8686    13.7481 C       0      f0     0.0151
   2621 C           11.6495    11.9452    11.3217 C       0      f0    -0.0026
   2622 C           12.3067    11.7486    14.0923 C       0      f0     0.0262
   2623 C           13.0333    12.3543    11.2634 C       0      f0    -0.0171
   2624 C           12.8883    10.8509    14.4004 C       0      f0     0.0183
   2625 C           13.4529    13.8495    11.7278 C       0      f0    -0.0022
   2626 H           13.3083    11.5233    11.9869 H       0      f0     0.0221
   2627 C           14.6445    13.9651    12.4759 C       0      f0    -0.0077
   2628 H          -15.0282    11.1480    11.8469 H       0      f0     0.0183
   2629 B           15.1501   -14.2361    15.0028 B      49     BOX     0.0000
   2630 B          -15.1501   -14.2361    15.0028 B      49     BOX     0.0000
   2631 B          -15.1501    14.2361    15.0028 B      49     BOX     0.0000
   2632 B           15.1501    14.2361    15.0028 B      49     BOX     0.0000
   2633 B           15.1501   -14.2361   -15.0028 B      49     BOX     0.0000
   2634 B          -15.1501   -14.2361   -15.0028 B      49     BOX     0.0000
   2635 B          -15.1501    14.2361   -15.0028 B      49     BOX     0.0000
   2636 B           15.1501    14.2361   -15.0028 B      49     BOX     0.0000
@<TRIPOS>BOND
     1      1    375      1
     2      1    379      1
     3     20     22      1
     4     20     83      1
     5     22     24      1
     6     24     86      1
     7     35   2315      1
     8     37     39      1
     9     37   2315      1
    10     38     39      1
    11     39     42      1
    12     41    363      1
    13     42     44      1
    14     44     45      1
    15     45    420      1
    16     81     82      1
    17     81     83      1
    18     82     84      1
    19     83     85      1
    20     84     85      1
    21     85     86      1
    22    110    112      1
    23    110    113      1
    24    112    162      1
    25    113    115      1
    26    115    116      1
    27    115    162      1
    28    116    118      1
    29    116    165      1
    30    118    489      1
    31    122    171      1
    32    126    127      1
    33    126    498      1
    34    127    449      1
    35    158    159      1
    36    158    534      1
    37    159    536      1
    38    162    163      1
    39    163    164      1
    40    164    165      1
    41    165    169      1
    42    167    169      1
    43    167    540      1
    44    169    539      1
    45    170    171      1
    46    171    173      1
    47    173    174      1
    48    174    175      1
    49    182    184      1
    50    182    185      1
    51    183    184      1
    52    183    232      1
    53    183    558      1
    54    185    233      1
    55    205    206      1
    56    205   2475      1
    57    206    209      1
    58    206    265      1
    59    207    209      1
    60    207   2475      1
    61    232    233      1
    62    232    234      1
    63    233    235      1
    64    234    237      1
    65    234    612      1
    66    235    237      1
    67    243    619      1
    68    243    621      1
    69    249    623      1
    70    249    630      1
    71    264    267      1
    72    264    640      1
    73    265    266      1
    74    267    644      1
    75    300    302      1
    76    300    674      1
    77    302    617      1
    78    305    364      1
    79    305    676      1
    80    364    720      1
    81    369    371      1
    82    369    730      1
    83    370    372      1
    84    371    372      1
    85    372    374      1
    86    374    732      1
    87    375    378      1
    88    378    380      1
    89    378    429      1
    90    379    381      1
    91    380    381      1
    92    380    382      1
    93    382    435      1
    94    415    419      1
    95    415    785      1
    96    417    420      1
    97    417    723      1
    98    419    471      1
    99    429    432      1
   100    432    435      1
   101    434    437      1
   102    434    802      1
   103    437    438      1
   104    438    440      1
   105    438    805      1
   106    440    442      1
   107    442    747      1
   108    446    494      1
   109    446    495      1
   110    449    495      1
   111    471    473      1
   112    473    791      1
   113    489    490      1
   114    489    539      1
   115    490    491      1
   116    490    544      1
   117    491    492      1
   118    492    493      1
   119    493    544      1
   120    494    497      1
   121    495    496      1
   122    496    498      1
   123    496    500      1
   124    497    500      1
   125    528    575      1
   126    528    893      1
   127    534    535      1
   128    534    580      1
   129    535    536      1
   130    535    584      1
   131    539    541      1
   132    540    541      1
   133    541    543      1
   134    543    544      1
   135    558    611      1
   136    568    569      1
   137    568    570      1
   138    569    571      1
   139    570    572      1
   140    570    620      1
   141    571    574      1
   142    572    573      1
   143    572    574      1
   144    573    623      1
   145    573    628      1
   146    575    577      1
   147    577    952      1
   148    580    581      1
   149    581    582      1
   150    582    584      1
   151    601    656      1
   152    601    977      1
   153    611    612      1
   154    616    618      1
   155    616    619      1
   156    617    677      1
   157    618    620      1
   158    620    621      1
   159    621    623      1
   160    628    630      1
   161    640    642      1
   162    641    642      1
   163    641    643      1
   164    642    644      1
   165    643    645      1
   166    643   1014      1
   167    644    646      1
   168    645    646      1
   169    645    649      1
   170    649   1020      1
   171    653    655      1
   172    653    656      1
   173    655   1028      1
   174    656   1030      1
   175    674    676      1
   176    676    677      1
   177    676    678      1
   178    677    679      1
   179    678    680      1
   180    678    722      1
   181    679    680      1
   182    720    722      1
   183    724   1106      1
   184    724   1107      1
   185    730    732      1
   186    738    800      1
   187    738   1127      1
   188    741    742      1
   189    741    743      1
   190    741    803      1
   191    742   1127      1
   192    743    746      1
   193    743    806      1
   194    745    746      1
   195    746    749      1
   196    747    749      1
   197    747    806      1
   198    749    752      1
   199    752    753      1
   200    784    785      1
   201    784    838      1
   202    785    791      1
   203    791    840      1
   204    800    803      1
   205    802    804      1
   206    803    804      1
   207    804    805      1
   208    805    806      1
   209    812    814      1
   210    812   1201      1
   211    814    817      1
   212    816    817      1
   213    816    862      1
   214    816   1201      1
   215    817    819      1
   216    819    864      1
   217    838    840      1
   218    862    864      1
   219    893    894      1
   220    893    951      1
   221    894    895      1
   222    895    898      1
   223    898    951      1
   224    938    940      1
   225    938    992      1
   226    939    941      1
   227    939    992      1
   228    939   1311      1
   229    940    941      1
   230    940    942      1
   231    941    943      1
   232    942    944      1
   233    943    945      1
   234    944    945      1
   235    951    952      1
   236    977    978      1
   237    978    980      1
   238    978   1031      1
   239    980   1404      1
   240    989    990      1
   241    989    992      1
   242    990   1311      1
   243    991    993      1
   244    991   1043      1
   245    993   1410      1
   246   1014   1016      1
   247   1016   1020      1
   248   1019   1023      1
   249   1019   1391      1
   250   1019   1444      1
   251   1023   1025      1
   252   1025   1074      1
   253   1027   1028      1
   254   1027   1029      1
   255   1027   1078      1
   256   1028   1030      1
   257   1029   1032      1
   258   1029   1400      1
   259   1030   1031      1
   260   1031   1032      1
   261   1032   1404      1
   262   1035   1036      1
   263   1035   1090      1
   264   1036   1087      1
   265   1041   1042      1
   266   1041   1043      1
   267   1042   1044      1
   268   1043   1045      1
   269   1044   1412      1
   270   1045   1410      1
   271   1045   1412      1
   272   1054   1056      1
   273   1054   1109      1
   274   1056   1112      1
   275   1058   1060      1
   276   1058   1114      1
   277   1060   1061      1
   278   1060   1120      1
   279   1061   1063      1
   280   1063   1429      1
   281   1074   1444      1
   282   1078   1079      1
   283   1079   1454      1
   284   1086   1088      1
   285   1086   1091      1
   286   1087   1088      1
   287   1088   1090      1
   288   1090   1092      1
   289   1091   1093      1
   290   1092   1093      1
   291   1101   1476      1
   292   1101   1479      1
   293   1106   1110      1
   294   1107   1109      1
   295   1109   1111      1
   296   1110   1111      1
   297   1111   1112      1
   298   1114   1117      1
   299   1116   1117      1
   300   1117   1118      1
   301   1118   1119      1
   302   1118   1120      1
   303   1157   1159      1
   304   1159   1162      1
   305   1191   1192      1
   306   1191   1194      1
   307   1192   1195      1
   308   1194   1196      1
   309   1195   1196      1
   310   1195   1247      1
   311   1196   1197      1
   312   1197   1249      1
   313   1216   1219      1
   314   1216   1586      1
   315   1219   1220      1
   316   1220   1221      1
   317   1221   1223      1
   318   1221   1588      1
   319   1223   1591      1
   320   1247   1248      1
   321   1247   1249      1
   322   1248   1250      1
   323   1249   1252      1
   324   1250   1251      1
   325   1250   1253      1
   326   1251   1633      1
   327   1252   1253      1
   328   1253   1254      1
   329   1254   1632      1
   330   1256   1257      1
   331   1256   1637      1
   332   1256   1639      1
   333   1257   1258      1
   334   1257   1306      1
   335   1258   1259      1
   336   1259   1639      1
   337   1262   1263      1
   338   1262   1264      1
   339   1263   1265      1
   340   1263   1309      1
   341   1264   1266      1
   342   1265   1267      1
   343   1265   1644      1
   344   1266   1267      1
   345   1266   1269      1
   346   1267   1268      1
   347   1268   1270      1
   348   1269   1271      1
   349   1270   1271      1
   350   1303   1305      1
   351   1303   1637      1
   352   1305   1306      1
   353   1309   1310      1
   354   1310   1644      1
   355   1325   1327      1
   356   1325   1712      1
   357   1327   1715      1
   358   1368   1369      1
   359   1368   1751      1
   360   1369   1370      1
   361   1369   1755      1
   362   1370   1372      1
   363   1372   1758      1
   364   1381   1383      1
   365   1381   1770      1
   366   1382   1383      1
   367   1382   1773      1
   368   1390   1391      1
   369   1390   1393      1
   370   1393   1443      1
   371   1400   1454      1
   372   1413   1414      1
   373   1413   1473      1
   374   1413   1478      1
   375   1414   1416      1
   376   1416   1417      1
   377   1417   1418      1
   378   1418   1478      1
   379   1426   1427      1
   380   1426   1486      1
   381   1427   1428      1
   382   1428   1429      1
   383   1428   1488      1
   384   1440   1834      1
   385   1440   1838      1
   386   1443   1444      1
   387   1470   1474      1
   388   1473   1475      1
   389   1474   1476      1
   390   1474   1477      1
   391   1475   1868      1
   392   1477   1479      1
   393   1478   1868      1
   394   1486   1487      1
   395   1487   1488      1
   396   1488   1490      1
   397   1492   1498      1
   398   1507   1508      1
   399   1507   1509      1
   400   1508   1893      1
   401   1509   1896      1
   402   1544   1547      1
   403   1544   1929      1
   404   1547   1932      1
   405   1550   1552      1
   406   1550   1612      1
   407   1552   1554      1
   408   1554   1559      1
   409   1554   1617      1
   410   1559   1623      1
   411   1586   1588      1
   412   1588   1589      1
   413   1589   1591      1
   414   1612   1617      1
   415   1613   1616      1
   416   1613   2037      1
   417   1615   1616      1
   418   1615   1619      1
   419   1616   1618      1
   420   1616   1620      1
   421   1617   1618      1
   422   1618   1622      1
   423   1619   1621      1
   424   1620   1621      1
   425   1620   1987      1
   426   1620   2041      1
   427   1622   1623      1
   428   1622   1987      1
   429   1632   1633      1
   430   1702   1703      1
   431   1702   2066      1
   432   1703   2073      1
   433   1712   1713      1
   434   1713   1715      1
   435   1713   1716      1
   436   1715   1767      1
   437   1716   1766      1
   438   1745   2117      1
   439   1745   2120      1
   440   1751   1752      1
   441   1752   1754      1
   442   1752   1813      1
   443   1754   1755      1
   444   1754   1756      1
   445   1755   1758      1
   446   1756   2136      1
   447   1766   1768      1
   448   1767   1768      1
   449   1767   1770      1
   450   1768   1769      1
   451   1769   1771      1
   452   1769   1772      1
   453   1770   1773      1
   454   1771   1774      1
   455   1772   1773      1
   456   1772   1824      1
   457   1774   1824      1
   458   1777   1778      1
   459   1777   1779      1
   460   1778   1780      1
   461   1779   1782      1
   462   1780   1783      1
   463   1782   1783      1
   464   1782   2167      1
   465   1783   1786      1
   466   1786   1789      1
   467   1788   1789      1
   468   1788   2167      1
   469   1812   1813      1
   470   1812   1815      1
   471   1813   1816      1
   472   1815   1818      1
   473   1816   1818      1
   474   1816   2136      1
   475   1828   1829      1
   476   1828   1830      1
   477   1829   1831      1
   478   1829   2215      1
   479   1830   1832      1
   480   1831   1832      1
   481   1832   1833      1
   482   1833   1834      1
   483   1833   1835      1
   484   1835   1838      1
   485   1842   2229      1
   486   1856   1858      1
   487   1856   2245      1
   488   1858   1859      1
   489   1858   1860      1
   490   1860   1864      1
   491   1860   2247      1
   492   1893   1895      1
   493   1894   2293      1
   494   1894   2349      1
   495   1895   1896      1
   496   1895   1898      1
   497   1896   1900      1
   498   1898   1901      1
   499   1900   1902      1
   500   1901   1902      1
   501   1919   1920      1
   502   1919   1966      1
   503   1920   1965      1
   504   1921   1922      1
   505   1922   1923      1
   506   1922   1924      1
   507   1923   1925      1
   508   1924   1926      1
   509   1925   1926      1
   510   1929   1931      1
   511   1930   1931      1
   512   1931   1932      1
   513   1950   1951      1
   514   1950   1952      1
   515   1951   1953      1
   516   1951   2005      1
   517   1952   1954      1
   518   1953   1954      1
   519   1953   2359      1
   520   1962   1964      1
   521   1962   2366      1
   522   1964   1965      1
   523   1964   1966      1
   524   1966   2370      1
   525   1975   1977      1
   526   1975   2020      1
   527   1977   2026      1
   528   2005   2356      1
   529   2020   2023      1
   530   2023   2025      1
   531   2025   2026      1
   532   2025   2027      1
   533   2026   2029      1
   534   2027   2030      1
   535   2029   2030      1
   536   2037   2041      1
   537   2066   2067      1
   538   2066   2070      1
   539   2067   2130      1
   540   2070   2073      1
   541   2070   2135      1
   542   2076   2454      1
   543   2076   2459      1
   544   2115   2117      1
   545   2115   2118      1
   546   2118   2119      1
   547   2118   2182      1
   548   2119   2120      1
   549   2119   2121      1
   550   2121   2185      1
   551   2130   2133      1
   552   2130   2505      1
   553   2133   2134      1
   554   2133   2135      1
   555   2134   2508      1
   556   2146   2147      1
   557   2146   2205      1
   558   2147   2148      1
   559   2148   2206      1
   560   2157   2158      1
   561   2157   2161      1
   562   2158   2162      1
   563   2161   2163      1
   564   2162   2163      1
   565   2162   2221      1
   566   2163   2166      1
   567   2166   2168      1
   568   2168   2223      1
   569   2179   2181      1
   570   2179   2182      1
   571   2181   2183      1
   572   2181   2541      1
   573   2182   2185      1
   574   2183   2184      1
   575   2183   2187      1
   576   2184   2235      1
   577   2184   2238      1
   578   2185   2187      1
   579   2203   2204      1
   580   2203   2559      1
   581   2204   2205      1
   582   2205   2206      1
   583   2206   2560      1
   584   2221   2223      1
   585   2229   2230      1
   586   2230   2232      1
   587   2234   2235      1
   588   2234   2236      1
   589   2235   2541      1
   590   2236   2237      1
   591   2237   2238      1
   592   2242   2244      1
   593   2242   2594      1
   594   2244   2246      1
   595   2245   2247      1
   596   2246   2597      1
   597   2261   2263      1
   598   2272   2274      1
   599   2289   2290      1
   600   2289   2293      1
   601   2290   2294      1
   602   2291   2293      1
   603   2291   2294      1
   604   2291   2346      1
   605   2296   2297      1
   606   2297   2300      1
   607   2300   2302      1
   608   2346   2348      1
   609   2348   2349      1
   610   2356   2357      1
   611   2357   2359      1
   612   2357   2361      1
   613   2359   2362      1
   614   2361   2363      1
   615   2362   2363      1
   616   2366   2368      1
   617   2368   2370      1
   618   2388   2390      1
   619   2454   2455      1
   620   2455   2456      1
   621   2456   2457      1
   622   2456   2458      1
   623   2458   2459      1
   624   2458   2460      1
   625   2460   2461      1
   626   2479   2482      1
   627   2480   2483      1
   628   2482   2483      1
   629   2505   2508      1
   630   2559   2560      1
   631   2588   2589      1
   632   2588   2592      1
   633   2589   2591      1
   634   2590   2593      1
   635   2591   2594      1
   636   2591   2595      1
   637   2592   2595      1
   638   2593   2596      1
   639   2594   2597      1
   640   2595   2598      1
   641   2596   2599      1
   642   2597   2601      1
   643   2598   2601      1
   644   2629   2630     du
   645   2630   2631     du
   646   2631   2632     du
   647   2632   2629     du
   648   2633   2634     du
   649   2634   2635     du
   650   2635   2636     du
   651   2636   2633     du
   652   2632   2636     du
   653   2633   2629     du
   654   2631   2635     du
   655   2634   2630     du
