@<TRIPOS>MOLECULE
LAMMPS data file via write_data, version 29 Oct 2020, timestep = 100 > lmp2SYBYLmol2 v3.0 / 24 May 2023 w/remove_PBC_bonds=True
  2670 2924    0    0    0
SMALL
NO_CHARGES
****
Energy = 0

@<TRIPOS>ATOM
      1 C          -14.7789   -10.7815   -13.0343 C       1      m1    -0.0021
      2 H          -14.6475   -12.0664   -15.3840 H       1      m1     0.0309
      3 C          -13.7336   -12.2940   -11.6167 C       1      m1    -0.0270
      4 C          -13.4769   -11.1434   -12.1787 C       1      m1     0.0034
      5 C          -12.9822   -12.6747   -15.3038 C       1      m1    -0.0080
      6 C          -12.3118   -13.1165   -14.1915 C       1      m1    -0.0031
      7 C          -11.5872   -13.3454   -13.0841 C       1      m1    -0.0182
      8 C          -10.2524   -13.6341   -12.5533 C       1      m1    -0.0194
      9 H           -9.3438   -10.4799   -14.0716 H       1      m1     0.0212
     10 H           -9.6421   -13.7283   -15.2948 H       1      m1     0.0401
     11 H           -9.4966   -13.7879   -13.3544 H       1      m1     0.0446
     12 C           -8.3294   -10.7245   -13.8274 C       1      m1    -0.0345
     13 H           -7.4364   -11.0812   -14.6263 H       1      m1     0.0276
     14 H           -4.9854   -12.5707    15.4785 H       1      m1     0.0339
     15 C           -4.7582   -11.5054    15.5672 C       1      m1    -0.0261
     16 H           -3.5827   -12.1423   -12.7163 H       1      m1     0.0233
     17 H           -3.1085   -13.5626   -14.9709 H       1      m1     0.0263
     18 H           -2.7721   -10.6886   -13.8862 H       1      m1     0.0192
     19 C           -2.7567   -12.9350   -12.8155 C       1      m1    -0.0182
     20 C           -2.5086   -13.7653   -11.9810 C       1      m1     0.0058
     21 C           -2.3953   -13.1385   -14.2320 C       1      m1    -0.0202
     22 C           -0.9780   -13.2748   -14.6050 C       1      m1     0.0203
     23 C           -0.2838   -10.5068   -11.0392 C       1      m1    -0.0126
     24 H           -0.3815   -11.4237   -15.3267 H       1      m1     0.0285
     25 C            0.1845   -12.2807   -14.8479 C       1      m1    -0.0186
     26 H            0.7412   -10.5748   -11.5997 H       1      m1     0.0097
     27 H            1.5175   -11.7254   -13.0750 H       1      m1     0.0118
     28 C            1.3646   -13.7226   -11.8353 C       1      m1     0.0030
     29 C            1.6948   -12.1160   -15.0200 C       1      m1     0.0250
     30 C            2.1217   -13.8834   -12.9995 C       1      m1    -0.0284
     31 C            2.1478   -12.3610   -13.5704 C       1      m1     0.0049
     32 C            3.5772   -11.8135   -13.8175 C       1      m1     0.0120
     33 C            4.2531   -11.6923   -15.1278 C       1      m1     0.0346
     34 C            4.3468   -11.2443   -12.6643 C       1      m1    -0.0085
     35 C            5.6068   -11.1119   -14.7962 C       1      m1    -0.0246
     36 C            5.6678   -11.0551   -12.3810 C       1      m1    -0.0199
     37 C            6.3115   -11.1270   -13.6813 C       1      m1    -0.0083
     38 H            7.2929   -10.5867   -13.9413 H       1      m1     0.0154
     39 H            7.3487   -12.7799   -11.8831 H       1      m1     0.0197
     40 C            9.5844   -10.7705   -15.1513 C       1      m1     0.0017
     41 C           10.9140   -11.9342   -11.9337 C       1      m1    -0.0494
     42 C           11.0775   -12.7516   -15.1051 C       1      m1    -0.0157
     43 C           11.1405   -13.6817   -14.2938 C       1      m1    -0.0019
     44 C           11.1295   -10.8804   -12.4853 C       1      m1     0.0316
     45 H           12.1064   -12.9112    15.5600 H       1      m1     0.0211
     46 H           14.2003   -13.3425   -15.0401 H       1      m1     0.0250
     47 H           13.5454   -11.4391   -15.3418 H       1      m1     0.0557
     48 C           14.2412   -13.7780   -11.2656 C       1      m1    -0.0141
     49 C           14.3789   -11.9446   -13.3081 C       1      m1     0.0100
     50 C           14.3335   -12.2137   -14.8999 C       1      m1    -0.0585
     51 C           14.8908   -12.8425   -12.2279 C       1      m1    -0.0012
     52 C          -14.6476    -6.8003   -14.9982 C       1      m1    -0.0038
     53 H          -14.0569    -9.2631   -14.0049 H       1      m1     0.0182
     54 C          -13.2238    -6.4264   -15.4778 C       1      m1    -0.0058
     55 C          -12.4795   -10.0944   -11.5114 C       1      m1    -0.0135
     56 H          -11.6355    -9.8654   -12.3525 H       1      m1     0.0166
     57 C          -10.7904    -8.1861   -15.5226 C       1      m1    -0.0010
     58 C          -10.7562    -6.8445   -15.0464 C       1      m1    -0.0050
     59 H           -9.0156    -8.8242   -15.0145 H       1      m1     0.0135
     60 C           -8.2633   -10.2955   -12.4660 C       1      m1     0.0032
     61 C           -7.1872    -9.9192   -11.9674 C       1      m1    -0.0016
     62 H           -6.1392    -8.1627   -13.5503 H       1      m1    -0.0028
     63 C           -6.2914    -9.3575   -11.0617 C       1      m1    -0.0295
     64 H           -5.7283   -10.0017   -15.1743 H       1      m1     0.0145
     65 C           -5.1595    -7.7910   -13.5281 C       1      m1     0.1682
     66 O           -4.9067    -6.5548   -12.5046 O       1      m1    -0.4664
     67 C           -4.6683   -10.1731   -14.9618 C       1      m1    -0.0070
     68 C           -4.8672    -7.2199   -15.0320 C       1      m1    -0.0018
     69 C           -4.1023    -8.8164   -13.2322 C       1      m1    -0.0209
     70 C           -3.8957   -10.0677   -13.8070 C       1      m1    -0.0119
     71 C           -3.8297    -7.3310   -11.5895 C       1      m1     0.1952
     72 C           -3.3418    -8.4612   -12.2921 C       1      m1    -0.0339
     73 C           -3.4351    -6.8466   -15.1542 C       1      m1     0.0116
     74 C           -2.4941    -9.5149   -11.4313 C       1      m1     0.0008
     75 C           -2.1746    -7.5962   -14.7380 C       1      m1     0.0177
     76 H           -2.0066    -8.6865   -14.1161 H       1      m1     0.0225
     77 C           -1.2937    -9.8082   -11.9362 C       1      m1    -0.0211
     78 C           -0.8590    -6.9188   -14.3513 C       1      m1    -0.0237
     79 H           -1.1361    -9.4639   -13.1153 H       1      m1     0.0129
     80 C            0.1242    -7.7261   -14.9524 C       1      m1     0.0141
     81 C            0.2655    -6.7802   -11.4952 C       1      m1    -0.0369
     82 H            0.9500    -7.6041   -12.0487 H       1      m1     0.0111
     83 C            2.4237    -8.1274   -15.0078 C       1      m1    -0.0122
     84 C            3.4322    -7.8624   -14.5913 C       1      m1    -0.0012
     85 C            4.7905    -6.7603   -12.2498 C       1      m1    -0.0436
     86 C            4.9502    -7.9362   -14.0276 C       1      m1    -0.0259
     87 C            5.0507    -6.4795   -13.6046 C       1      m1     0.0120
     88 H            5.2127    -8.8483   -13.7581 H       1      m1     0.0215
     89 H            5.9347   -10.4344   -11.4711 H       1      m1     0.0197
     90 C            6.8527    -8.3136   -15.2702 C       1      m1    -0.0143
     91 H            6.9062    -6.8677   -14.1276 H       1      m1     0.0264
     92 C            7.8806    -7.6125   -12.2390 C       1      m1    -0.0054
     93 C            7.8510    -6.2343   -14.3978 C       1      m1    -0.0254
     94 C            7.9758    -6.1909   -12.8088 C       1      m1    -0.0451
     95 H            8.6318    -6.8745   -14.8027 H       1      m1     0.0221
     96 H            8.5374    -9.7179   -11.4001 H       1      m1     0.0248
     97 C            9.1702    -9.5871   -14.7226 C       1      m1    -0.0231
     98 H            9.1735    -8.8805   -13.7336 H       1      m1     0.0173
     99 C           10.9675    -6.4306   -11.8669 C       1      m1    -0.0094
    100 C           11.0500    -7.8572   -11.5310 C       1      m1     0.0026
    101 C           11.6309    -9.6616   -12.6398 C       1      m1    -0.0084
    102 C           11.6854    -7.8069   -15.2853 C       1      m1    -0.0193
    103 C           11.9359    -8.3758   -12.8179 C       1      m1    -0.0029
    104 C           12.4542    -8.3867   -14.1350 C       1      m1    -0.0009
    105 C           13.8665    -8.8945   -14.6351 C       1      m1     0.0218
    106 C           14.7382    -8.1197    15.4586 C       1      m1    -0.0355
    107 C           14.7610    -9.4884   -13.5405 C       1      m1    -0.0205
    108 C          -14.7472    -2.1200   -15.4648 C       1      m1    -0.0350
    109 H          -14.7637    -4.5274   -12.4277 H       1      m1     0.0191
    110 C          -11.9270    -2.7948   -13.0739 C       1      m1     0.0008
    111 C          -11.8982    -6.0088   -14.8141 C       1      m1    -0.0074
    112 C          -12.1409    -4.2558   -12.7987 C       1      m1    -0.0065
    113 C          -11.5738    -4.7460   -14.2456 C       1      m1    -0.0016
    114 C          -11.1757    -4.6801   -11.7029 C       1      m1    -0.0113
    115 H          -10.9895    -2.9565    15.3681 H       1      m1     0.0354
    116 C          -10.7340    -3.9294   -15.1911 C       1      m1    -0.0193
    117 H          -11.4397    -5.7688   -11.4143 H       1      m1     0.0275
    118 C          -10.5138    -2.3071   -12.3934 C       1      m1     0.0035
    119 C          -10.1851    -3.4841   -11.6168 C       1      m1     0.0056
    120 C           -9.5161    -6.0916   -15.4394 C       1      m1     0.0033
    121 C           -6.2416    -2.4471   -14.8079 C       1      m1     0.0012
    122 C           -6.2194    -3.2224   -13.5565 C       1      m1     0.0110
    123 C           -4.5850    -3.7208   -13.3795 C       1      m1     0.0322
    124 C           -3.6170    -3.5450   -12.2312 C       1      m1     0.0084
    125 C           -3.7063    -3.9138   -14.4859 C       1      m1     0.0031
    126 C           -3.3985    -2.2584   -12.0552 C       1      m1    -0.0023
    127 C           -2.7491    -4.7536   -11.4519 C       1      m1     0.0208
    128 C           -2.3758    -3.9793   -14.9741 C       1      m1    -0.0265
    129 H           -1.8137    -3.7064   -14.0177 H       1      m1     0.0156
    130 C           -1.3847    -4.7020   -11.4880 C       1      m1     0.0269
    131 H           -0.6666    -5.7882   -14.1921 H       1      m1     0.0180
    132 C           -0.1561    -5.4283   -11.7455 C       1      m1     0.0295
    133 C            0.8174    -4.1674   -11.8752 C       1      m1    -0.0006
    134 C            0.8960    -3.5561   -13.1858 C       1      m1    -0.0200
    135 C            1.1128    -2.7341   -14.0952 C       1      m1     0.0074
    136 C            2.5260    -2.3451   -14.6545 C       1      m1    -0.0226
    137 C            2.7957    -2.8135   -11.5672 C       1      m1    -0.0066
    138 C            3.6803    -1.8808   -12.1247 C       1      m1    -0.0274
    139 C            3.5754    -2.1186   -13.7518 C       1      m1     0.0039
    140 C            4.1487    -5.0570   -15.2574 C       1      m1    -0.0028
    141 H            4.5158    -4.0317   -11.7749 H       1      m1     0.0275
    142 C            5.0873    -4.6046   -11.0466 C       1      m1    -0.0090
    143 C            5.1671    -5.2663   -14.6105 C       1      m1    -0.0048
    144 C            6.2953    -4.2512   -14.8231 C       1      m1     0.0042
    145 C            6.4736    -3.0889   -13.9213 C       1      m1     0.0007
    146 H            6.8600    -5.1722   -11.9857 H       1      m1    -0.0024
    147 C            7.6668    -5.0009   -15.3013 C       1      m1     0.0004
    148 C            7.8748    -5.2200   -11.5174 C       1      m1     0.2011
    149 C            7.7599    -2.7305   -13.4403 C       1      m1    -0.0075
    150 H            8.7656    -4.4755   -11.9704 H       1      m1     0.0141
    151 C            9.1607    -2.6235   -13.4414 C       1      m1    -0.0213
    152 C            9.9824    -2.0516   -12.2300 C       1      m1     0.0126
    153 H           10.5629    -6.0693   -12.7254 H       1      m1     0.0210
    154 C           11.4967    -2.1919   -12.5047 C       1      m1    -0.0008
    155 C           12.2147    -5.4765   -11.7282 C       1      m1     0.0021
    156 H           12.1215    -5.5977   -15.1362 H       1      m1     0.0191
    157 C           12.1724    -3.3795   -12.6160 C       1      m1    -0.0029
    158 C           12.8373    -4.4879   -12.6594 C       1      m1    -0.0047
    159 C           14.3060    -5.2179   -12.7384 C       1      m1    -0.0208
    160 C           14.2672    -6.0286   -11.4105 C       1      m1     0.0019
    161 H           14.8862    -2.9505   -14.7365 H       1      m1     0.0156
    162 C           14.7428    -6.2083   -14.0347 C       1      m1    -0.0113
    163 C          -13.8552     1.9527   -12.2574 C       1      m1     0.0035
    164 C          -13.8900    -1.4159   -14.4628 C       1      m1     0.0050
    165 C          -13.2676    -1.0956   -12.0531 C       1      m1    -0.0021
    166 C          -13.2625    -1.9580   -13.3154 C       1      m1    -0.0049
    167 C          -12.9356    -0.5169   -14.8895 C       1      m1     0.0060
    168 C          -12.8189     1.1708   -11.2709 C       1      m1    -0.0333
    169 C          -12.2909    -0.0435   -12.0182 C       1      m1     0.0026
    170 C          -11.9291     0.4821   -15.2663 C       1      m1     0.0110
    171 H          -12.1689     2.1382   -11.0395 H       1      m1     0.0207
    172 C          -10.8984    -0.0155   -12.3777 C       1      m1     0.0077
    173 C          -10.3637     1.4829   -12.2738 C       1      m1    -0.0052
    174 C           -9.9043    -0.9863   -12.1701 C       1      m1    -0.0232
    175 H           -8.8444    -1.0598   -12.2318 H       1      m1     0.0249
    176 C           -8.3135     1.6642   -15.4272 C       1      m1    -0.0145
    177 C           -7.0152     1.5283   -14.9469 C       1      m1    -0.0107
    178 C           -6.6824     1.6671   -13.5443 C       1      m1    -0.0006
    179 C           -5.3575     1.7780   -12.9916 C       1      m1    -0.0058
    180 C           -3.3282    -0.9353   -11.9620 C       1      m1    -0.0029
    181 H           -3.3742     1.7236    15.4015 H       1      m1     0.0159
    182 C           -3.3130     0.2928   -11.7852 C       1      m1    -0.0071
    183 C           -3.4299     1.5587   -11.7069 C       1      m1    -0.0005
    184 H           -1.0920    -2.2068   -14.5205 H       1      m1     0.0195
    185 C           -0.0803    -1.8445   -14.7754 C       1      m1    -0.0615
    186 H           -0.1229    -0.9199   -14.3629 H       1      m1     0.0313
    187 H            1.5553    -0.7979   -12.2280 H       1      m1     0.0193
    188 C            2.1077     1.8054   -13.4408 C       1      m1     0.0031
    189 C            2.2276     0.0550   -11.6804 C       1      m1    -0.0183
    190 C            2.8738     1.0501   -12.7527 C       1      m1    -0.0188
    191 H            3.8172     1.3642   -13.4397 H       1      m1     0.0213
    192 H            4.5122    -1.3607   -12.0820 H       1      m1     0.0209
    193 H            4.4099    -1.3866    15.5293 H       1      m1     0.0278
    194 C            4.7653    -1.5642   -14.5517 C       1      m1    -0.0158
    195 H            4.8200     0.5495   -12.3152 H       1      m1     0.0171
    196 C            5.2287     1.1888   -15.4062 C       1      m1    -0.0023
    197 C            5.6647     1.7906   -14.1459 C       1      m1    -0.0154
    198 C            5.6133     1.0511   -12.8660 C       1      m1    -0.0211
    199 C            6.1242    -1.5319   -14.0816 C       1      m1    -0.0151
    200 C            6.1796     1.5802   -11.5991 C       1      m1    -0.0011
    201 H            6.5403    -0.7016   -13.3270 H       1      m1     0.0174
    202 C            7.5413     1.9033   -12.1816 C       1      m1    -0.0201
    203 C            8.0696     1.2277   -13.1970 C       1      m1    -0.0002
    204 H            8.1516    -0.8690   -11.9476 H       1      m1     0.0234
    205 H            8.6832    -0.3856   -14.3092 H       1      m1     0.0171
    206 C            8.9313     0.6737   -13.9887 C       1      m1    -0.0227
    207 C            9.1079    -1.0440   -11.5413 C       1      m1    -0.0157
    208 H            9.0409    -2.8823   -14.5800 H       1      m1     0.0176
    209 C           10.4952     0.9919   -13.6053 C       1      m1    -0.0009
    210 C           11.9270     0.5011   -13.0515 C       1      m1    -0.0007
    211 C           11.8864    -0.8986   -12.8940 C       1      m1    -0.0062
    212 C           12.9972     1.5145   -12.7180 C       1      m1    -0.0298
    213 C           13.1037     2.0191   -14.2907 C       1      m1    -0.0080
    214 H           13.6643     0.6791   -12.4218 H       1      m1     0.0227
    215 C          -14.4117     3.0116   -14.1207 C       1      m1     0.0097
    216 C          -14.1917     3.5937   -15.3872 C       1      m1    -0.0199
    217 C          -13.4238     5.9198   -13.2697 C       1      m1    -0.0075
    218 C          -13.1282     2.8763   -13.0057 C       1      m1    -0.0249
    219 H          -12.8061     5.3341   -11.3365 H       1      m1     0.0196
    220 C          -12.5205     5.8167   -14.0008 C       1      m1    -0.0061
    221 H          -12.1951     2.9591   -13.4176 H       1      m1     0.0255
    222 C          -11.4497     4.1453   -15.0953 C       1      m1    -0.0009
    223 C          -11.3116     5.2117   -14.1420 C       1      m1    -0.0079
    224 C          -10.7667     2.7575   -15.2205 C       1      m1    -0.0078
    225 C          -10.2822     6.1564   -14.1695 C       1      m1     0.0090
    226 C           -9.2444     2.8892   -15.0465 C       1      m1     0.0022
    227 C           -9.3238     5.5776   -11.9000 C       1      m1    -0.0074
    228 C           -8.9904     5.4546   -14.3770 C       1      m1     0.0082
    229 C           -9.0490     1.9083   -12.5868 C       1      m1     0.0025
    230 C           -8.9455     4.2053   -11.8007 C       1      m1    -0.0049
    231 C           -8.7140     4.0978   -14.5721 C       1      m1    -0.0019
    232 C           -8.1880     3.8744   -13.0993 C       1      m1    -0.0191
    233 C           -7.8936     2.3744   -12.9083 C       1      m1     0.0007
    234 H           -7.3253     4.3805   -12.7079 H       1      m1     0.0245
    235 C           -6.9453     6.1846   -15.2966 C       1      m1    -0.0075
    236 H           -6.0802     6.3318   -14.4890 H       1      m1     0.0219
    237 C           -4.9634     5.6950   -11.3449 C       1      m1    -0.0169
    238 H           -4.9228     3.0910   -15.1658 H       1      m1     0.0150
    239 C           -4.5289     3.8578   -14.3596 C       1      m1    -0.0393
    240 H           -4.7667     4.9210   -14.6692 H       1      m1     0.0232
    241 C           -4.0039     3.6974   -13.2088 C       1      m1     0.0131
    242 C           -4.1209     2.1936   -12.9493 C       1      m1    -0.0046
    243 C           -4.0867     4.9969   -12.2357 C       1      m1    -0.0436
    244 C           -3.1103     5.7076   -12.4944 C       1      m1     0.1789
    245 C           -2.4335     2.2074   -15.5657 C       1      m1    -0.0181
    246 C           -2.1381     5.1028   -13.4590 C       1      m1    -0.0164
    247 C           -2.2309     3.6642   -15.3660 C       1      m1     0.0015
    248 C           -1.3933     4.6268   -14.4617 C       1      m1     0.0106
    249 C           -1.3413     3.1402   -11.4834 C       1      m1    -0.0040
    250 C           -0.2419     3.8486   -12.0196 C       1      m1     0.0026
    251 C            0.0903     4.5930   -14.0479 C       1      m1     0.0009
    252 C            0.6063     3.5307   -13.1380 C       1      m1    -0.0063
    253 H            0.6995     5.6208   -11.9138 H       1      m1     0.0272
    254 C            1.1856     5.6584   -14.5831 C       1      m1     0.0002
    255 C            1.1991     2.5237   -14.0381 C       1      m1    -0.0051
    256 C            1.2743     2.7013    15.5716 C       1      m1     0.0513
    257 C            2.6261     5.7539   -14.3333 C       1      m1    -0.0004
    258 H            2.6086     3.9768   -13.4835 H       1      m1     0.0198
    259 C            3.2598     4.3646   -14.3602 C       1      m1    -0.0303
    260 H            3.0568     2.2725    15.5120 H       1      m1     0.0503
    261 H            4.2548     4.3143   -14.0521 H       1      m1     0.0228
    262 H            6.2993     2.8707   -14.3671 H       1      m1     0.0184
    263 C            6.3582     4.8249   -11.1440 C       1      m1     0.0034
    264 C            6.4283     6.2536   -11.5932 C       1      m1     0.0008
    265 C            8.2223     5.6607   -13.0120 C       1      m1    -0.0032
    266 H            8.2032     2.5116   -11.6791 H       1      m1     0.0229
    267 C            8.6842     4.4844   -13.7963 C       1      m1    -0.0080
    268 C           10.1837     3.2288   -15.0810 C       1      m1    -0.0019
    269 C            9.8511     4.6032   -14.5598 C       1      m1     0.0019
    270 H            9.5545     3.9942   -11.8498 H       1      m1     0.0184
    271 C           10.1994     2.1962   -14.1947 C       1      m1    -0.0036
    272 C           10.7874     5.6573   -14.1941 C       1      m1    -0.0178
    273 H           11.4283     4.1774   -12.4706 H       1      m1     0.0170
    274 C           11.5049     5.0947   -13.0008 C       1      m1    -0.0138
    275 H           12.2336     1.9257   -15.0229 H       1      m1     0.0279
    276 H           12.8527     2.2408   -11.8299 H       1      m1     0.0177
    277 C           12.8135     5.6541   -13.3526 C       1      m1    -0.0157
    278 H           12.9982     3.7858   -11.7202 H       1      m1     0.0135
    279 C           14.1649     4.4135   -11.6042 C       1      m1    -0.0171
    280 C           14.0781     5.3966   -12.7709 C       1      m1    -0.0016
    281 C           14.1910     2.5147   -13.9511 C       1      m1     0.0042
    282 C          -14.5947     7.8072   -12.5369 C       1      m1    -0.0104
    283 C          -14.5894     6.3305   -12.7135 C       1      m1    -0.0087
    284 C          -14.2734     9.5603   -13.9910 C       1      m1    -0.0437
    285 C          -13.9764     8.4450   -11.2942 C       1      m1    -0.0025
    286 H          -13.7188     8.6787   -13.9220 H       1      m1     0.0238
    287 H          -14.1467    10.3823   -14.6053 H       1      m1     0.0186
    288 C          -11.2510     9.6570   -11.2226 C       1      m1     0.0094
    289 H           -9.9924     8.4483   -13.9393 H       1      m1     0.0557
    290 C          -10.1389     7.3646   -13.4008 C       1      m1    -0.0169
    291 C           -9.3270     6.9040   -12.1897 C       1      m1     0.0033
    292 C           -9.0502     8.0762   -11.1497 C       1      m1    -0.0228
    293 H           -9.0440     9.0181   -11.6976 H       1      m1     0.0162
    294 C           -8.3323     6.2511   -15.4672 C       1      m1    -0.0293
    295 C           -7.7423    10.0217   -13.0518 C       1      m1    -0.0122
    296 H           -7.9723     9.6856   -11.9292 H       1      m1     0.0104
    297 H           -6.7017     8.3678   -11.4275 H       1      m1     0.0228
    298 C           -6.6470     9.4460   -13.8113 C       1      m1     0.0154
    299 C           -6.3608     9.7095   -15.3003 C       1      m1    -0.0313
    300 C           -5.8663     7.9337   -12.0493 C       1      m1    -0.0374
    301 C           -5.7132     8.3502   -13.2384 C       1      m1    -0.0046
    302 H           -5.1577     9.5876   -14.9101 H       1      m1     0.0220
    303 H           -4.8853     8.0314   -13.7376 H       1      m1     0.0607
    304 C           -4.4124     7.2848   -11.3732 C       1      m1     0.2220
    305 O           -3.2401     7.4162   -12.2360 O       1      m1    -0.4652
    306 H           -0.1376     8.9978   -12.3855 H       1      m1     0.0348
    307 H            2.4996     9.0500   -13.7502 H       1      m1     0.0221
    308 C            2.5876     9.0521   -14.8785 C       1      m1    -0.0178
    309 H            2.6226     9.4351   -11.4707 H       1      m1     0.0180
    310 C            3.2360     7.7149   -15.5729 C       1      m1    -0.0213
    311 H            3.6804     7.3653   -11.9914 H       1      m1     0.0192
    312 C            3.4508     6.9266   -14.2385 C       1      m1    -0.0011
    313 C            3.6334     9.6720   -11.2495 C       1      m1    -0.0401
    314 C            4.2060     7.3920   -12.9344 C       1      m1    -0.0220
    315 C            5.4954     8.0366   -13.0894 C       1      m1    -0.0111
    316 C            5.8516     9.6918   -15.2880 C       1      m1    -0.0003
    317 H            6.0167     8.7142   -12.1631 H       1      m1     0.0171
    318 C            6.8318     7.8620   -13.6444 C       1      m1     0.0003
    319 C            6.7081     8.7094   -14.9603 C       1      m1    -0.0052
    320 C            7.7106     6.5810   -12.2362 C       1      m1     0.0044
    321 C            8.0600     9.3989   -15.2892 C       1      m1    -0.0042
    322 C            7.9643     7.9535   -12.6523 C       1      m1    -0.0187
    323 H            9.0879    10.0865   -11.9018 H       1      m1     0.0220
    324 C            8.8677     8.9697   -11.6634 C       1      m1    -0.0155
    325 H            8.8163     7.7795   -13.2851 H       1      m1     0.0244
    326 C            9.0586     8.3152   -15.5129 C       1      m1    -0.0035
    327 C           10.0166     7.8711   -11.8807 C       1      m1     0.0017
    328 H           10.4614     6.6804   -14.3729 H       1      m1     0.0223
    329 C           10.4272     8.5331   -14.8543 C       1      m1    -0.0047
    330 C           10.8422     9.2127   -13.6180 C       1      m1    -0.0001
    331 C           11.2128     8.1165   -12.5715 C       1      m1    -0.0029
    332 H           12.9856     6.3028   -14.2746 H       1      m1     0.0187
    333 C           12.7471     7.9991   -12.2971 C       1      m1     0.0022
    334 C           13.0287     7.1314   -11.2803 C       1      m1    -0.0125
    335 C           14.0776     8.5919   -12.7524 C       1      m1     0.0016
    336 C           14.2290     9.7123   -13.6529 C       1      m1    -0.0181
    337 H          -13.9806   -14.4043   -13.9086 H       1      m1     0.0174
    338 C          -13.8318    13.7852   -14.6664 C       1      m1    -0.0186
    339 H          -12.6111    13.1136   -11.8722 H       1      m1     0.0133
    340 C          -12.6807    13.0883   -14.5373 C       1      m1    -0.0267
    341 C          -12.4754    10.5518   -11.4193 C       1      m1    -0.0007
    342 H          -12.4633    12.6709   -13.5700 H       1      m1     0.0186
    343 C          -12.2826    12.0734   -11.4612 C       1      m1    -0.0226
    344 C          -11.9719    12.9181   -15.5582 C       1      m1     0.0107
    345 H          -12.2457   -13.9202   -12.4337 H       1      m1     0.0157
    346 C           -9.8426    14.2944   -11.7348 C       1      m1    -0.0126
    347 H           -8.8354    11.7755   -13.4361 H       1      m1     0.0292
    348 C           -8.0647    11.1388   -13.8686 C       1      m1    -0.0149
    349 H           -7.3884    13.0034   -12.4340 H       1      m1    -0.0357
    350 C           -7.3657    11.0096   -15.0921 C       1      m1     0.0464
    351 O           -7.0459    13.9951   -14.4046 O       1      m1    -0.5048
    352 C           -6.7636    13.3004   -13.3531 C       1      m1     0.3153
    353 H           -6.7832    11.6983   -11.3644 H       1      m1     0.0126
    354 C           -5.3756    12.9888   -13.1511 C       1      m1    -0.0545
    355 C           -4.6696    13.2501   -11.9318 C       1      m1     0.0067
    356 C           -4.2446    12.5135   -14.2426 C       1      m1     0.0298
    357 C           -2.9147    12.0957   -14.1817 C       1      m1    -0.0184
    358 H           -2.3056    11.7500   -13.3489 H       1      m1     0.0295
    359 H           -1.2224    13.6721   -11.0039 H       1      m1     0.0134
    360 C            1.6182    12.1579   -11.3183 C       1      m1    -0.0359
    361 H            0.7902    12.9227   -11.6940 H       1      m1     0.0243
    362 C            2.8263    11.9539   -12.1215 C       1      m1     0.0092
    363 C            3.0826    14.2453   -13.5519 C       1      m1     0.2059
    364 C            3.2259    12.8134   -13.1604 C       1      m1    -0.0131
    365 C            3.6898    11.0099   -11.9606 C       1      m1    -0.0011
    366 O            3.6493    14.3574   -15.0406 O       1      m1    -0.4364
    367 C            4.3112    13.0188   -15.2291 C       1      m1     0.2491
    368 C            4.0928    12.2043   -13.9680 C       1      m1    -0.0241
    369 H            4.7288    13.7436   -11.3246 H       1      m1     0.0203
    370 C            4.6043    11.0136   -13.2606 C       1      m1     0.0003
    371 C            5.2523    10.3457   -14.2956 C       1      m1    -0.0076
    372 H            7.4059    11.8756   -11.6994 H       1      m1     0.0159
    373 H            8.3881    11.2922   -13.9437 H       1      m1     0.0162
    374 C            9.4110    10.8555   -14.1012 C       1      m1    -0.0254
    375 C           10.0417    11.0310   -15.2235 C       1      m1     0.0034
    376 C           10.3827    12.4525   -12.0918 C       1      m1     0.0001
    377 C           10.5278    10.5152   -13.1424 C       1      m1    -0.0009
    378 C           10.9286    11.0314   -11.9654 C       1      m1    -0.0022
    379 C           11.2097    14.2314   -13.4590 C       1      m1    -0.0046
    380 C           11.4969    13.2815   -12.5922 C       1      m1     0.0027
    381 C           12.2635    10.4541   -11.4220 C       1      m1     0.0141
    382 C           12.8308    13.0032   -11.8959 C       1      m1    -0.0019
    383 C           13.0927    11.6446   -11.2641 C       1      m1    -0.0057
    384 H           13.5744    10.6192   -13.7326 H       1      m1     0.0160
    385 C           13.5093    14.0834   -11.6647 C       1      m1     0.0039
    386 H           14.8633    12.2713   -14.4368 H       1      m1     0.0119
    387 C           14.6653    13.1254   -15.2712 C       1      m1    -0.0255
    388 C          -14.6159   -10.4990    -9.3501 C       1      m1     0.0141
    389 H          -14.3574   -12.2336    -8.0814 H       1      m1     0.0211
    390 C          -14.0082   -11.1117    -8.1135 C       1      m1    -0.0162
    391 H          -13.3667   -12.8554   -10.8302 H       1      m1     0.0144
    392 C          -12.3217   -11.3999    -7.9940 C       1      m1    -0.0012
    393 C          -12.1874   -12.7747    -8.2348 C       1      m1    -0.0086
    394 C          -11.5820   -13.3415    -9.3737 C       1      m1    -0.0272
    395 H          -11.5674   -12.7235   -10.2369 H       1      m1     0.0200
    396 C          -11.1929   -10.5944    -7.8346 C       1      m1    -0.0127
    397 C          -10.0278   -11.1891    -8.4927 C       1      m1     0.0128
    398 C           -9.0367   -11.7051    -8.8889 C       1      m1    -0.0050
    399 C           -8.1042   -12.6751    -9.4045 C       1      m1    -0.0183
    400 H           -8.2678   -12.6803   -10.5006 H       1      m1     0.0214
    401 C           -7.1376   -13.5735    -8.9334 C       1      m1    -0.0061
    402 H           -6.3954   -10.7999    -6.9716 H       1      m1     0.0168
    403 C           -6.5709   -13.8619    -7.5135 C       1      m1     0.0007
    404 H           -6.4525   -12.1492   -10.6168 H       1      m1     0.0256
    405 C           -5.7117   -11.6724   -10.0264 C       1      m1    -0.0199
    406 C           -4.7737   -12.1936    -9.0820 C       1      m1    -0.0013
    407 C           -3.8367   -13.2130    -8.5965 C       1      m1    -0.0046
    408 C           -3.1791   -13.1425    -7.2684 C       1      m1     0.0021
    409 C           -2.2409   -14.2575    -7.0774 C       1      m1     0.0009
    410 C           -0.7379   -11.1145    -9.8948 C       1      m1    -0.0236
    411 H           -0.5323   -13.7968   -10.8056 H       1      m1     0.0171
    412 H           -0.1135   -11.6261    -9.1975 H       1      m1     0.0216
    413 C            0.5233   -13.4521   -10.7237 C       1      m1    -0.0296
    414 C            0.7934   -13.7254    -8.3123 C       1      m1    -0.0220
    415 C            0.7973   -13.0137    -7.0454 C       1      m1     0.0015
    416 C            1.3831   -13.4341    -9.4824 C       1      m1     0.0077
    417 C            1.9497   -11.0310    -9.2260 C       1      m1    -0.0057
    418 C            2.5685   -12.6076    -9.4561 C       1      m1    -0.0180
    419 C            2.9898   -12.7388    -7.8326 C       1      m1     0.0013
    420 H            3.3706   -12.3916   -10.2618 H       1      m1     0.0183
    421 C            4.3181   -13.3500    -7.7778 C       1      m1    -0.0005
    422 C            4.9240   -14.1623    -8.5001 C       1      m1    -0.0067
    423 H            5.9798   -13.9642    -6.7485 H       1      m1     0.0241
    424 C            6.9252   -13.7832    -9.6692 C       1      m1    -0.0034
    425 C            6.9955   -11.1989    -7.1857 C       1      m1     0.0018
    426 C            7.3949   -12.7159   -10.7225 C       1      m1    -0.0151
    427 C            7.2867   -11.6172   -10.1013 C       1      m1     0.0027
    428 H            8.7344   -13.6515    -6.8635 H       1      m1     0.0206
    429 C            8.2338   -14.3243    -9.1927 C       1      m1     0.0052
    430 C            8.3224   -11.4580    -6.8244 C       1      m1    -0.0180
    431 C            8.8463   -14.1902    -7.8654 C       1      m1    -0.0118
    432 H            9.0556   -11.1000    -7.5971 H       1      m1     0.0404
    433 C            9.9875   -13.8226   -10.9883 C       1      m1    -0.0522
    434 C           10.8341   -13.7488    -6.9635 C       1      m1     0.0245
    435 C           10.7274   -12.6608   -10.9028 C       1      m1     0.2414
    436 O           11.4298   -11.9528    -9.7239 O       1      m1    -0.4497
    437 C           12.8856   -11.1188   -10.3344 C       1      m1     0.1598
    438 H           13.0195   -10.8704   -11.3343 H       1      m1    -0.0031
    439 C           14.0399   -10.8398    -9.7412 C       1      m1    -0.0433
    440 H          -14.8558   -13.9656    -8.5524 H       1      m1     0.0135
    441 H           14.4696   -14.0673   -10.1405 H       1      m1     0.0206
    442 C          -14.6315    -9.9963    -7.1219 C       1      m1     0.0124
    443 C          -14.7140    -6.6982    -9.0061 C       1      m1     0.0040
    444 C          -14.4288    -6.2370   -10.3480 C       1      m1    -0.0387
    445 C          -14.3351    -9.1532    -9.8980 C       1      m1    -0.0003
    446 H          -13.9086    -7.2313   -10.5812 H       1      m1     0.0242
    447 C          -13.2203    -9.1074   -10.8383 C       1      m1    -0.0094
    448 H          -12.7134    -8.2073   -11.1237 H       1      m1     0.0229
    449 H          -11.1826    -9.5025    -7.3307 H       1      m1     0.0917
    450 O           -9.9716    -8.0140    -8.0215 O       1      m1    -0.4674
    451 C           -8.7238    -8.2985    -8.3868 C       1      m1     0.2764
    452 H           -8.5623    -9.0888    -9.3099 H       1      m1    -0.0090
    453 C           -7.5752    -7.4417    -7.9603 C       1      m1    -0.0410
    454 C           -7.4287    -6.2917    -6.8787 C       1      m1     0.0094
    455 H           -6.7457    -8.5996    -9.0815 H       1      m1     0.0094
    456 C           -6.4107    -7.9449    -8.4291 C       1      m1    -0.0208
    457 H           -6.1468    -8.3422   -10.9732 H       1      m1     0.0387
    458 C           -5.4572   -10.0975   -10.0497 C       1      m1    -0.0003
    459 C           -4.9258    -7.7071    -8.0332 C       1      m1     0.0058
    460 C           -5.0274    -6.8963    -6.9749 C       1      m1     0.0087
    461 C           -4.2195    -9.5917    -9.5604 C       1      m1    -0.0105
    462 C           -3.8621    -8.5186    -8.4985 C       1      m1     0.0009
    463 C           -2.9468    -6.7552   -10.7235 C       1      m1    -0.0635
    464 C           -2.9357   -10.0593   -10.0671 C       1      m1    -0.0064
    465 C           -2.6707    -8.5019    -7.6630 C       1      m1     0.0071
    466 H           -1.9720    -7.1802   -10.5292 H       1      m1     0.0667
    467 C           -1.6923   -10.1350    -9.3121 C       1      m1     0.0071
    468 C           -1.4892    -9.4379    -7.9905 C       1      m1     0.0045
    469 H           -0.9195    -9.7318    -6.9638 H       1      m1     0.0170
    470 O            0.1928    -6.8201    -8.9583 O       1      m1    -0.4191
    471 C            0.7124    -7.4246   -10.3411 C       1      m1     0.2226
    472 C            1.4846    -7.6669    -8.3063 C       1      m1     0.1954
    473 C            1.4577    -8.4399   -10.2154 C       1      m1    -0.0465
    474 H            1.8795    -9.1540   -11.0584 H       1      m1     0.0266
    475 C            2.0617    -8.6219    -9.0974 C       1      m1     0.0253
    476 C            2.0250    -7.2234    -7.0724 C       1      m1    -0.0542
    477 C            2.8050    -9.9647    -9.0946 C       1      m1    -0.0195
    478 O            3.5530    -7.0127    -9.7526 O       1      m1    -0.5211
    479 H            3.8266   -10.2549    -8.9764 H       1      m1     0.0232
    480 C            4.3470    -8.3127    -7.2684 C       1      m1    -0.0654
    481 C            4.2613    -7.6147    -8.6990 C       1      m1     0.2582
    482 C            4.7170    -7.1145   -10.8865 C       1      m1     0.2012
    483 C            5.5531    -8.1989    -9.0529 C       1      m1    -0.0458
    484 C            5.6154    -8.8027    -6.9400 C       1      m1     0.0089
    485 C            5.8556    -8.0506   -10.5683 C       1      m1    -0.0340
    486 C            6.4592    -8.7898    -8.0572 C       1      m1     0.0072
    487 H            6.4229    -5.9902    -8.1078 H       1      m1    -0.0150
    488 C            6.8642   -10.1627    -8.2191 C       1      m1    -0.0041
    489 C            7.1764    -8.0906   -11.0185 C       1      m1     0.0241
    490 C            7.3308   -10.4759    -9.7006 C       1      m1     0.0044
    491 C            8.1055    -9.3637   -10.5454 C       1      m1    -0.0349
    492 H            8.9105    -9.0740    -9.7433 H       1      m1     0.0318
    493 H            9.9675    -7.1253    -8.1401 H       1      m1     0.0250
    494 H           10.4512    -8.3506    -9.8460 H       1      m1     0.0313
    495 H           10.5403    -9.2701    -7.3458 H       1      m1     0.0254
    496 C           11.3666    -7.9066    -9.9402 C       1      m1    -0.0301
    497 C           11.6370    -8.9301    -8.0073 C       1      m1    -0.0174
    498 C           11.6742    -6.5302    -8.9045 C       1      m1    -0.0010
    499 H           12.2821    -8.5505   -10.0344 H       1      m1     0.0232
    500 H           12.4558    -9.3401    -8.5254 H       1      m1     0.0365
    501 C           13.3437    -8.2473    -6.7347 C       1      m1     0.0019
    502 C           14.4018    -8.9814    -7.6282 C       1      m1    -0.0058
    503 C           14.9528    -8.2732    -8.9365 C       1      m1    -0.0044
    504 H          -14.4840    -2.2579    -9.2027 H       1      m1     0.0208
    505 C          -14.2413    -4.7793    -7.6075 C       1      m1    -0.0047
    506 C          -13.9695    -3.7359    -6.5751 C       1      m1    -0.0006
    507 C          -13.7479    -2.6371    -9.8697 C       1      m1    -0.0215
    508 H          -13.8172    -5.3682   -10.2175 H       1      m1     0.0263
    509 C          -13.7005    -6.0174    -7.9663 C       1      m1     0.0044
    510 C          -12.7359    -3.6573    -9.9622 C       1      m1    -0.0020
    511 C          -12.3059    -5.7634    -7.7655 C       1      m1     0.0189
    512 C          -11.8818    -4.4126   -10.1959 C       1      m1    -0.0039
    513 C          -11.0779    -5.3755    -7.7178 C       1      m1     0.0431
    514 C          -10.7862    -4.5308    -9.0441 C       1      m1     0.0041
    515 C          -10.1172    -3.5166    -8.6742 C       1      m1    -0.0019
    516 C           -9.5778    -2.2778    -8.4700 C       1      m1    -0.0217
    517 C           -8.8452    -3.3288   -10.9845 C       1      m1    -0.0211
    518 H           -8.6254    -2.2665   -10.6269 H       1      m1     0.0178
    519 C           -8.0745    -4.3771   -10.6827 C       1      m1     0.0171
    520 C           -7.4428    -2.1000    -6.8079 C       1      m1    -0.0101
    521 C           -7.1308    -5.3070   -10.3029 C       1      m1    -0.0248
    522 H           -7.1468    -6.2983   -10.9330 H       1      m1     0.0500
    523 H           -6.3774    -5.1585    -9.5635 H       1      m1     0.0334
    524 H           -4.4221    -4.8443   -10.2055 H       1      m1     0.0411
    525 C           -3.4622    -5.4251   -10.4667 C       1      m1     0.0706
    526 O           -2.1429    -3.8767    -8.0101 O       1      m1    -0.4589
    527 C           -2.0652    -2.8208    -7.3347 C       1      m1     0.3341
    528 C            0.6152    -2.5073    -6.6728 C       1      m1    -0.0217
    529 H            0.5968    -3.5308    -6.6568 H       1      m1     0.0461
    530 H            1.7512    -4.8843    -9.1659 H       1      m1     0.0897
    531 C            1.9329    -3.9299   -11.0550 C       1      m1     0.0170
    532 C            2.3046    -4.1274    -9.4229 C       1      m1    -0.0035
    533 C            2.9932    -3.1438    -8.5057 C       1      m1     0.0018
    534 C            4.4122    -2.7820    -8.5045 C       1      m1     0.0064
    535 H            5.3187    -4.7688    -7.7849 H       1      m1     0.0158
    536 C            5.3768    -3.6829    -7.6690 C       1      m1    -0.0115
    537 C            5.8774    -4.8056   -10.0828 C       1      m1     0.0389
    538 C            6.3079    -3.1002    -6.8033 C       1      m1    -0.0202
    539 C            6.6152    -5.5102    -9.0777 C       1      m1     0.1896
    540 O            7.8787    -5.1875    -9.9554 O       1      m1    -0.4804
    541 C            9.7167    -2.6147    -7.7154 C       1      m1     0.0000
    542 C            9.9586    -3.7814    -8.2201 C       1      m1     0.0294
    543 H           10.7877    -3.9772    -9.0527 H       1      m1     0.0261
    544 C           10.4761    -6.2025    -8.4427 C       1      m1     0.0154
    545 C           10.4238    -5.0242    -7.4811 C       1      m1    -0.0025
    546 H           12.0910    -3.3084    -9.7532 H       1      m1     0.0227
    547 H           12.6702    -4.6679    -9.2027 H       1      m1     0.0215
    548 C           12.5647    -3.0242    -8.8240 C       1      m1    -0.0292
    549 C           12.9587    -5.7336    -9.0365 C       1      m1    -0.0174
    550 C           13.0639    -5.8363   -10.6695 C       1      m1    -0.0011
    551 C           13.4860    -3.3545    -7.9378 C       1      m1     0.0049
    552 C           13.7290    -2.3359    -6.9574 C       1      m1    -0.0244
    553 C           14.2135    -5.7590    -8.4727 C       1      m1     0.0002
    554 C           14.3902    -4.7285    -8.0017 C       1      m1    -0.0086
    555 C          -14.8190     1.5675    -7.2005 C       1      m1     0.0061
    556 C          -13.7031    -1.7701   -10.8478 C       1      m1    -0.0068
    557 H          -13.2741     0.7779   -10.3795 H       1      m1     0.0240
    558 H          -11.2811     0.2030    -7.3181 H       1      m1     0.0220
    559 C          -11.0568     0.7133    -8.2188 C       1      m1    -0.0287
    560 C          -10.5712     1.4742    -9.0708 C       1      m1     0.0051
    561 H          -10.0113    -1.3984    -9.0586 H       1      m1     0.0158
    562 H           -9.0177    -0.0423    -9.8142 H       1      m1     0.0191
    563 C           -8.2047    -1.9071    -8.2008 C       1      m1     0.0017
    564 C           -8.0153     0.1833    -9.4807 C       1      m1    -0.0163
    565 C           -7.6035     1.5481    -9.3126 C       1      m1     0.0010
    566 C           -7.3545    -0.9045    -8.7954 C       1      m1    -0.0243
    567 H           -6.5407    -0.8355    -8.1549 H       1      m1     0.0216
    568 C           -6.1665     1.8987    -8.9407 C       1      m1     0.0050
    569 C           -6.0758    -2.1007    -6.7059 C       1      m1    -0.0056
    570 C           -5.0764     1.0509    -9.1386 C       1      m1    -0.0231
    571 H           -5.6008     0.0056    -9.3202 H       1      m1     0.0203
    572 C           -4.7643    -1.7257    -6.9306 C       1      m1    -0.0049
    573 C           -3.6821     1.4517    -9.2460 C       1      m1     0.0006
    574 H           -3.3705    -0.7008    -8.9169 H       1      m1     0.0253
    575 C           -2.8637     0.1820    -9.5077 C       1      m1    -0.0137
    576 C           -1.3569     0.1759    -9.8379 C       1      m1    -0.0166
    577 C           -0.8302     1.2629    -9.1927 C       1      m1    -0.0029
    578 H           -0.8915    -0.6538   -10.4030 H       1      m1     0.0215
    579 H            0.5115    -1.9736    -8.9883 H       1      m1     0.0296
    580 C            0.8337    -1.6135    -7.8747 C       1      m1     0.0026
    581 H            1.0956     2.6211   -10.2632 H       1      m1     0.0189
    582 C            2.2044    -1.9859    -8.1846 C       1      m1    -0.0079
    583 C            2.5624     0.4399   -10.4562 C       1      m1    -0.0032
    584 C            2.8999     0.9279    -9.2559 C       1      m1    -0.0236
    585 H            3.7539     0.6208    -8.6500 H       1      m1     0.0176
    586 H            3.9777    -0.8313    -9.3708 H       1      m1     0.0174
    587 C            4.8032    -1.4654    -8.8596 C       1      m1    -0.0216
    588 H            5.3166     2.1042    -6.9387 H       1      m1     0.0234
    589 C            6.1614    -1.0508    -8.3993 C       1      m1    -0.0025
    590 C            6.4181     0.6643   -10.6074 C       1      m1    -0.0123
    591 C            6.6664    -0.3872    -9.6075 C       1      m1     0.0013
    592 C            6.9179    -1.8692    -7.4071 C       1      m1     0.0138
    593 H            7.9177    -0.0043    -7.5332 H       1      m1     0.0268
    594 C            8.0268    -0.9184    -7.1388 C       1      m1    -0.0388
    595 C            8.2750     1.8434    -6.9258 C       1      m1    -0.0262
    596 H            9.8933     0.2467    -9.8306 H       1      m1     0.0198
    597 C            9.5411    -1.3895    -7.2640 C       1      m1     0.0083
    598 C            9.5052     1.5509    -7.5648 C       1      m1     0.0022
    599 C            9.6382    -0.9442   -10.2293 C       1      m1     0.0002
    600 C           10.7246     0.4626    -7.5749 C       1      m1     0.0041
    601 C           10.9040    -0.7587    -7.0442 C       1      m1    -0.0249
    602 C           10.7680    -1.3365    -9.7506 C       1      m1    -0.0023
    603 C           11.2981     2.0019    -9.5396 C       1      m1    -0.0117
    604 H           11.7409    -1.3452    -7.2006 H       1      m1     0.0250
    605 C           11.8258     0.9817    -8.5805 C       1      m1    -0.0002
    606 C           11.8588    -1.5535    -9.1224 C       1      m1    -0.0026
    607 C           12.5444    -0.2405    -8.7871 C       1      m1    -0.0012
    608 H           13.5287    -1.5174    -6.3117 H       1      m1     0.0169
    609 C           14.0287    -0.0699    -9.1663 C       1      m1    -0.0190
    610 H           14.2300    -0.4550   -10.1989 H       1      m1     0.0182
    611 C           14.8580     0.6974    -8.4645 C       1      m1    -0.0018
    612 C          -14.9144     4.6704   -10.5181 C       1      m1     0.0073
    613 C          -13.5519     4.3050    -7.8589 C       1      m1    -0.0002
    614 C          -13.3187     5.1255   -10.3132 C       1      m1    -0.0143
    615 C          -12.7306     4.3737    -9.0595 C       1      m1    -0.0204
    616 H          -11.7339     4.3928    -8.7375 H       1      m1     0.0196
    617 H          -10.4905     3.0487   -10.1398 H       1      m1     0.0192
    618 C           -9.8915     2.2441   -10.0072 C       1      m1    -0.0227
    619 H           -8.6890     2.7893    -6.7315 H       1      m1     0.0197
    620 C           -8.4874     2.5583    -9.9385 C       1      m1     0.0050
    621 C           -8.1588     3.8809   -10.4189 C       1      m1    -0.0088
    622 H           -7.8915     5.7973    -9.0090 H       1      m1     0.0183
    623 H           -6.7231     3.6355    -8.0705 H       1      m1     0.0243
    624 C           -6.8528     4.3426   -10.0038 C       1      m1    -0.0015
    625 C           -6.0853     3.4116    -8.8622 C       1      m1    -0.0378
    626 C           -5.9531     5.1363   -10.6363 C       1      m1    -0.0008
    627 H           -5.0927     3.7018    -8.6423 H       1      m1     0.0248
    628 H           -3.2140     5.8849    -6.9315 H       1      m1     0.0200
    629 C           -2.9559     4.1039    -9.1743 C       1      m1    -0.0046
    630 C           -3.1444     2.7569    -9.5661 C       1      m1    -0.0021
    631 C           -2.7458     5.3020    -8.7649 C       1      m1     0.0039
    632 C           -2.4092     2.5606   -10.9763 C       1      m1    -0.0003
    633 C           -1.2298     5.6420    -9.0228 C       1      m1     0.0003
    634 C           -0.5782     5.9567   -10.2738 C       1      m1     0.0180
    635 C           -0.3185     2.3711    -8.4577 C       1      m1     0.0307
    636 C            0.3030     5.0060   -11.1198 C       1      m1    -0.0209
    637 C            1.1735     2.3621    -9.1675 C       1      m1    -0.0131
    638 C            1.3631     4.9598    -9.8749 C       1      m1    -0.0062
    639 C            1.5518     3.9334    -8.9585 C       1      m1     0.0029
    640 C            2.3665     6.0612   -10.0502 C       1      m1    -0.0015
    641 C            2.3269     4.2331    -7.8171 C       1      m1    -0.0151
    642 C            2.4749     2.0360    -8.5040 C       1      m1     0.0079
    643 C            2.6984     3.0070    -7.3499 C       1      m1     0.0337
    644 H            2.4206     5.4646    -7.6362 H       1      m1     0.0234
    645 H            3.4423     3.9476   -11.4406 H       1      m1     0.0171
    646 C            3.7748     5.8373   -10.2922 C       1      m1    -0.0020
    647 C            4.1080     4.5482   -10.8960 C       1      m1    -0.0186
    648 H            5.6990     3.0575   -10.2343 H       1      m1     0.0199
    649 C            5.4060     3.8284   -10.8497 C       1      m1    -0.0207
    650 H            5.7027     2.9943    -8.5225 H       1      m1     0.0237
    651 C            6.0080     2.5946    -7.5691 C       1      m1    -0.0448
    652 C            6.8885     6.2449    -6.5737 C       1      m1    -0.0213
    653 C            7.0441     6.1887    -8.1552 C       1      m1     0.0010
    654 C            7.3174     2.4772    -7.6741 C       1      m1     0.0097
    655 C            7.4764     4.8935    -8.1845 C       1      m1    -0.0074
    656 C            8.0093     3.6393    -8.5989 C       1      m1    -0.0048
    657 C            9.1671     3.2812    -9.5173 C       1      m1     0.0016
    658 C            9.4450     4.2144   -10.6670 C       1      m1    -0.0194
    659 C            9.6551     5.6223   -10.6365 C       1      m1    -0.0009
    660 C            9.8590     2.1209    -9.0706 C       1      m1    -0.0038
    661 C           11.6169     6.3595    -6.5945 C       1      m1     0.0085
    662 H           11.7031     5.6034    -8.6789 H       1      m1     0.0197
    663 H           13.0591     3.9093    -9.4038 H       1      m1     0.0177
    664 C           14.1173     2.6494    -7.5034 C       1      m1    -0.0034
    665 C           14.2532     4.1275    -9.4828 C       1      m1    -0.0178
    666 C           14.9068     3.6990    -8.3591 C       1      m1     0.0021
    667 C          -13.6646     7.8085   -10.2205 C       1      m1     0.0276
    668 C          -13.6834     9.9821   -10.9473 C       1      m1     0.0180
    669 C          -13.6889     6.5449    -9.6416 C       1      m1    -0.0115
    670 C          -13.0803     7.1278    -8.4838 C       1      m1     0.0442
    671 C          -12.4239     6.6633    -7.5041 C       1      m1     0.0094
    672 H          -10.8050     7.4145   -10.6833 H       1      m1     0.0248
    673 C          -10.4691     8.6328   -10.8887 C       1      m1    -0.0037
    674 C          -10.2027     6.8680    -6.7346 C       1      m1    -0.0096
    675 C           -9.4177     7.0952    -7.8842 C       1      m1     0.0113
    676 C           -8.4974     6.9517    -8.8774 C       1      m1    -0.0159
    677 H           -8.4880    10.0684   -10.7223 H       1      m1     0.0136
    678 C           -7.8315     7.8089    -9.9621 C       1      m1    -0.0035
    679 C           -7.0659     8.9100    -9.6740 C       1      m1    -0.0040
    680 C           -5.8589     6.4199    -6.6841 C       1      m1    -0.0093
    681 C           -5.8764     8.4290    -9.1101 C       1      m1    -0.0133
    682 C           -5.1356     6.5106    -7.8299 C       1      m1    -0.0026
    683 C           -4.7905     7.8862    -8.4548 C       1      m1     0.0010
    684 H           -4.2790     7.5124   -10.3631 H       1      m1    -0.0037
    685 C           -3.5596     6.3176    -7.7796 C       1      m1    -0.0149
    686 C           -3.1081     7.7950    -8.0621 C       1      m1    -0.0321
    687 H           -2.7611     8.2436    -7.0473 H       1      m1     0.0200
    688 H           -2.7497     8.2304    -8.9994 H       1      m1     0.0323
    689 H           -1.2968     8.8530    -9.4102 H       1      m1     0.0249
    690 C           -1.0168     6.2992    -7.5521 C       1      m1    -0.0034
    691 C           -0.3717     8.8297   -10.0039 C       1      m1    -0.0223
    692 C           -0.5736     9.4442   -11.2784 C       1      m1     0.0032
    693 C            0.1983     7.3327   -10.1877 C       1      m1     0.0098
    694 C            0.1401     6.8145    -6.9372 C       1      m1    -0.0195
    695 C            1.6017     7.2621   -10.3238 C       1      m1    -0.0225
    696 H            1.9232     8.3864   -10.2583 H       1      m1     0.0163
    697 H            2.6688    10.9030    -9.5953 H       1      m1     0.0149
    698 C            2.8168     7.2134    -6.7470 C       1      m1    -0.0104
    699 C            3.3421     7.5475    -7.8613 C       1      m1    -0.0073
    700 C            4.3748     8.0658    -8.8413 C       1      m1    -0.0021
    701 H            4.4793     9.0197   -11.2853 H       1      m1     0.0226
    702 C            4.5574     9.6204    -8.8505 C       1      m1    -0.0020
    703 C            4.6598     7.0225    -9.8188 C       1      m1    -0.0041
    704 C            5.0994    10.0360    -7.5801 C       1      m1     0.0031
    705 C            6.0146     6.8503   -10.2831 C       1      m1    -0.0007
    706 C            6.5070     9.6826    -7.1212 C       1      m1    -0.0081
    707 C            6.8519     7.0189    -9.1961 C       1      m1    -0.0000
    708 C            7.6936     9.2846    -7.9802 C       1      m1     0.0122
    709 C            7.6416     8.2929    -9.1315 C       1      m1     0.0003
    710 C            8.2770     8.8600   -10.2311 C       1      m1     0.0044
    711 C           10.3771     6.7874   -10.8843 C       1      m1    -0.0015
    712 C           12.1172     6.4249    -9.1190 C       1      m1    -0.0080
    713 C           11.7989     6.7443   -10.4783 C       1      m1     0.0080
    714 C           12.2829     7.5355    -8.2778 C       1      m1    -0.0243
    715 C           12.5435     8.3521    -7.2677 C       1      m1     0.1990
    716 O           13.5113     9.7875    -7.3628 O       1      m1    -0.4653
    717 H           14.0843     7.0724   -11.0404 H       1      m1     0.0297
    718 C          -14.7015    13.1990    -7.5380 C       1      m1     0.0007
    719 C          -14.6873    10.6968   -10.0060 C       1      m1    -0.0111
    720 H          -14.2075    10.8429    -9.0810 H       1      m1     0.0727
    721 C          -13.2770    13.1602    -7.9890 C       1      m1     0.0209
    722 C          -12.0832    13.1673    -8.5742 C       1      m1    -0.0586
    723 O          -11.9521    10.4409    -8.1979 O       1      m1    -0.5012
    724 C          -11.4967    14.1712    -9.5303 C       1      m1     0.0015
    725 C          -11.6591    11.4640    -8.7292 C       1      m1     0.3617
    726 C          -11.0642    12.1621   -11.1237 C       1      m1    -0.0212
    727 C          -10.9025    13.6752   -10.7783 C       1      m1    -0.0111
    728 H          -10.7129    11.9654    -8.8239 H       1      m1    -0.0365
    729 H          -10.1261    11.4629   -10.7070 H       1      m1     0.0153
    730 H           -8.8907    14.3910   -11.3109 H       1      m1     0.0223
    731 H           -8.0664    10.6783    -8.7050 H       1      m1     0.0272
    732 C           -7.6254    10.3704    -9.7339 C       1      m1    -0.0301
    733 C           -6.5401    13.4449    -7.5065 C       1      m1    -0.0001
    734 C           -6.4465    11.4791   -10.2403 C       1      m1    -0.0175
    735 H           -5.3696   -14.3856   -10.0784 H       1      m1     0.0231
    736 C           -5.6670    12.4311    -8.0568 C       1      m1    -0.0021
    737 C           -5.3572    12.2476    -9.6362 C       1      m1    -0.0005
    738 C           -5.2976    11.1454    -7.3562 C       1      m1    -0.0232
    739 H           -5.1453    10.2678    -7.8970 H       1      m1     0.0247
    740 C           -4.7911    13.6649    -9.7816 C       1      m1    -0.0191
    741 C           -3.9183    14.2471    -8.5636 C       1      m1     0.0063
    742 C           -3.7958    13.5377   -10.9145 C       1      m1     0.0022
    743 C           -2.8032    13.6823    -7.9870 C       1      m1    -0.0159
    744 C           -2.2832    14.2180   -11.1253 C       1      m1    -0.0239
    745 H           -2.1962    13.0531    -8.7655 H       1      m1     0.0168
    746 C           -1.2565    11.0850    -7.2008 C       1      m1    -0.0167
    747 H           -1.0322    10.2417    -7.9122 H       1      m1     0.0149
    748 H           -0.1690    10.4370   -10.7406 H       1      m1     0.0108
    749 H           -0.3176   -14.1335    -8.4529 H       1      m1     0.0157
    750 C           -0.3476    12.2616    -6.8494 C       1      m1    -0.0154
    751 H            0.2221    12.7865    -7.6047 H       1      m1     0.0174
    752 H            1.3909    11.0065   -10.9645 H       1      m1     0.0140
    753 C            3.7727    10.5102    -9.8196 C       1      m1    -0.0138
    754 H            3.9585    12.8871    -6.2168 H       1      m1     0.0174
    755 C            4.1653    12.2473    -7.1283 C       1      m1    -0.0179
    756 C            4.3171    12.3542    -8.4793 C       1      m1    -0.0002
    757 C            4.5820    11.9914    -9.8043 C       1      m1    -0.0019
    758 C            4.9076    13.3317   -10.3521 C       1      m1    -0.0209
    759 C            5.6576    14.3506    -9.5676 C       1      m1    -0.0033
    760 C            8.0702    11.9418   -10.8415 C       1      m1    -0.0255
    761 C            8.1852    11.1520    -9.6598 C       1      m1     0.0008
    762 C            8.4357    10.4875    -8.4441 C       1      m1    -0.0123
    763 H            8.7099    11.3119    -7.8440 H       1      m1     0.0265
    764 C            9.2135    14.1269   -10.5724 C       1      m1     0.0210
    765 C            9.2879    12.8070   -11.2095 C       1      m1    -0.0033
    766 C           10.2517    14.3104    -7.9282 C       1      m1    -0.0035
    767 H           10.6621    13.4120    -8.2126 H       1      m1     0.0290
    768 C           14.1734    11.2222   -10.4006 C       1      m1     0.0231
    769 C           14.4736    14.4437    -7.6416 C       1      m1    -0.0092
    770 C           14.5766    12.1496    -6.7481 C       1      m1    -0.0201
    771 C          -14.4794   -10.8561    -5.9727 C       1      m1    -0.0434
    772 O          -14.1446   -10.7256    -3.4192 O       1      m1    -0.4764
    773 C          -12.4463   -13.8460    -4.1594 C       1      m1     0.0665
    774 C          -12.2104    14.3617    -5.4249 C       1      m1    -0.0030
    775 C          -11.7061   -12.6885    -4.5987 C       1      m1    -0.0477
    776 H          -12.1783   -11.9677    -3.9712 H       1      m1     0.0604
    777 C          -10.8309   -14.4025    -5.3457 C       1      m1     0.0199
    778 C          -10.3592   -13.1075    -4.7860 C       1      m1     0.0004
    779 C           -8.8941   -12.7793    -4.5685 C       1      m1    -0.0179
    780 C           -7.9824   -13.6567    -5.3135 C       1      m1    -0.0028
    781 C           -7.7054   -10.5890    -2.2980 C       1      m1    -0.0046
    782 H           -6.9525   -11.3949    -4.0041 H       1      m1     0.0215
    783 C           -6.9022   -13.1165    -6.1178 C       1      m1     0.0005
    784 C           -6.3384   -11.7158    -6.1414 C       1      m1    -0.0177
    785 C           -5.9919   -10.9254    -3.9098 C       1      m1    -0.0215
    786 H           -5.0389   -14.0891    -4.2221 H       1      m1     0.0200
    787 C           -5.3032   -11.4302    -5.0169 C       1      m1    -0.0027
    788 C           -3.9996   -11.5795    -5.7613 C       1      m1    -0.0009
    789 C           -3.8233   -13.1964    -2.4682 C       1      m1    -0.0019
    790 C           -2.9850   -11.8031    -6.5119 C       1      m1    -0.0256
    791 C           -2.7457   -12.8209    -3.1604 C       1      m1    -0.0200
    792 H           -2.8581   -12.9159    -4.2666 H       1      m1     0.0206
    793 H           -1.9760   -11.9546    -6.9194 H       1      m1     0.0203
    794 C           -1.5066   -12.2600    -2.4343 C       1      m1    -0.0027
    795 H           -1.3925   -12.1364    -4.6075 H       1      m1     0.0199
    796 C           -1.1939   -14.1204    -6.0705 C       1      m1    -0.0044
    797 C           -0.6674   -13.2584    -2.7208 C       1      m1     0.0011
    798 C           -0.3902   -11.8886    -5.0144 C       1      m1    -0.0160
    799 C           -0.2572   -12.9302    -5.9017 C       1      m1    -0.0031
    800 C            0.1730   -10.5414    -4.7848 C       1      m1    -0.0190
    801 C            0.5819   -13.8655    -2.9067 C       1      m1    -0.0129
    802 H            1.3927   -13.5267    -1.8939 H       1      m1     0.0160
    803 C            1.5490   -11.2013    -4.5433 C       1      m1     0.0041
    804 C            2.0328   -10.5856    -3.1561 C       1      m1    -0.0252
    805 C            2.2225   -12.5097    -6.6591 C       1      m1    -0.0011
    806 C            2.5610   -11.8968    -5.2384 C       1      m1     0.0023
    807 H            2.9468   -10.5537    -2.5872 H       1      m1     0.0172
    808 H            4.1899   -13.1753    -4.1366 H       1      m1     0.0208
    809 C            3.9562   -12.1646    -4.5886 C       1      m1    -0.0412
    810 H            4.0444   -11.3966    -4.0212 H       1      m1     0.0232
    811 H            4.1822   -14.0942    -6.1891 H       1      m1     0.0218
    812 C            5.1284   -13.5168    -6.4409 C       1      m1    -0.0404
    813 C            5.0139   -12.1706    -5.7706 C       1      m1     0.0081
    814 C            5.9482   -11.2185    -6.1001 C       1      m1    -0.0104
    815 H            7.8123   -13.1429    -3.8634 H       1      m1     0.0166
    816 H            7.9694   -12.0735    -2.4574 H       1      m1     0.0167
    817 H            7.8380   -11.7381    -4.7678 H       1      m1     0.0163
    818 C            8.4873   -12.8867    -2.9766 C       1      m1    -0.0374
    819 C            8.3756   -14.2487    -2.5354 C       1      m1    -0.0005
    820 C            8.7560   -11.3678    -5.3702 C       1      m1    -0.0325
    821 H            9.4909   -10.6429    -4.8852 H       1      m1     0.0161
    822 C           10.0098   -12.6418    -3.5326 C       1      m1     0.0012
    823 C           10.0105   -12.3628    -5.0578 C       1      m1    -0.0080
    824 C           10.7833   -12.7587    -2.4450 C       1      m1    -0.0066
    825 C           11.1511   -12.9484    -5.8435 C       1      m1     0.0107
    826 C           12.1265   -12.1739    -2.7929 C       1      m1     0.0263
    827 C           12.5054   -12.3658    -5.6820 C       1      m1    -0.0001
    828 H           12.0624   -11.5322    -5.0676 H       1      m1     0.0166
    829 C           13.4164   -11.7756    -3.1963 C       1      m1     0.0070
    830 C           13.6900   -12.6979    -6.0413 C       1      m1     0.0503
    831 O           13.7682   -14.3543    -3.9516 O       1      m1    -0.4802
    832 C           14.1744   -14.0357    -6.3434 C       1      m1    -0.0324
    833 C           14.5171   -11.7459    -5.4777 C       1      m1    -0.0234
    834 C           14.4637   -11.4790    -3.9669 C       1      m1     0.2138
    835 C          -14.4294    -6.1523    -4.3825 C       1      m1    -0.0095
    836 C          -13.6689   -10.3669    -4.8287 C       1      m1     0.2193
    837 C          -12.4528    -9.7454    -5.1414 C       1      m1    -0.0405
    838 C          -11.1947    -9.2537    -4.7809 C       1      m1     0.0307
    839 C          -10.3732    -7.5668    -3.3347 C       1      m1     0.0356
    840 C          -10.2251    -8.4201    -4.2700 C       1      m1     0.0054
    841 C          -10.3503    -6.8077    -2.3858 C       1      m1     0.0158
    842 C           -8.7947    -9.2283    -4.4429 C       1      m1    -0.0169
    843 H           -9.2062    -9.7957    -5.3896 H       1      m1     0.0290
    844 C           -8.0015    -9.7881    -3.3400 C       1      m1    -0.0083
    845 C           -7.8730    -7.8125    -4.1342 C       1      m1    -0.0078
    846 C           -7.8096    -7.0553    -3.1307 C       1      m1    -0.0048
    847 H           -7.3508    -7.4812    -5.1860 H       1      m1     0.0205
    848 H           -5.3178    -8.6062    -4.7933 H       1      m1     0.0169
    849 C           -5.2982    -8.4874    -3.6866 C       1      m1    -0.0208
    850 C           -5.6888    -9.8384    -2.9598 C       1      m1    -0.0100
    851 H           -5.3318    -6.4882    -4.0733 H       1      m1     0.0150
    852 C           -5.4173    -7.2650    -3.2656 C       1      m1    -0.0190
    853 H           -4.7784    -9.7650    -2.1999 H       1      m1     0.0174
    854 H           -3.7954    -5.9049    -5.6012 H       1      m1     0.0291
    855 C           -3.8416    -6.7682    -6.1820 C       1      m1    -0.0241
    856 C           -2.5529    -7.2514    -6.6802 C       1      m1     0.0378
    857 C           -1.3460    -7.0507    -5.8878 C       1      m1     0.0303
    858 H            0.2069    -8.0253    -4.7804 H       1      m1     0.0147
    859 C           -0.2896    -7.0693    -5.2370 C       1      m1    -0.0134
    860 H           -0.3555    -9.5165    -4.5925 H       1      m1     0.0145
    861 C            0.6437    -6.3520    -2.9379 C       1      m1    -0.0124
    862 H            2.0351    -7.6266    -4.5205 H       1      m1     0.0187
    863 H            1.5623    -6.4204    -6.7076 H       1      m1     0.0576
    864 C            2.8041    -8.1757    -5.1804 C       1      m1    -0.0196
    865 C            3.2393    -7.9820    -6.5683 C       1      m1     0.0229
    866 H            3.5079    -8.8749    -3.3089 H       1      m1     0.0169
    867 C            3.8401    -8.4769    -4.2373 C       1      m1    -0.0142
    868 C            4.0760    -6.8675    -3.2899 C       1      m1    -0.0075
    869 C            5.2852    -8.8624    -4.5593 C       1      m1    -0.0158
    870 C            5.5712    -9.7869    -5.6485 C       1      m1    -0.0041
    871 H            5.4884    -9.6405    -3.7589 H       1      m1     0.0126
    872 H            5.6688    -8.6219    -1.8161 H       1      m1     0.0252
    873 H            8.0864    -7.8627    -3.3508 H       1      m1     0.0131
    874 C            7.8454    -7.0017    -4.1729 C       1      m1    -0.0137
    875 H            8.1736    -9.3911    -5.2066 H       1      m1     0.0158
    876 C            8.0521    -7.1061    -5.5482 C       1      m1    -0.0111
    877 C            8.5139    -8.4557    -5.8245 C       1      m1    -0.0243
    878 H           11.3364    -7.5808    -6.2376 H       1      m1     0.0184
    879 H           11.6305    -8.0391    -3.4644 H       1      m1     0.0155
    880 C           11.9818    -8.1890    -6.8623 C       1      m1    -0.0260
    881 C           11.9938    -7.1084    -3.7003 C       1      m1    -0.0229
    882 C           12.8699    -6.6948    -2.5638 C       1      m1    -0.0171
    883 H           13.7406    -9.4861    -2.4334 H       1      m1     0.0573
    884 C           13.7527    -7.2812    -5.8095 C       1      m1    -0.0077
    885 C           14.6563    -6.6126    -5.0193 C       1      m1     0.0073
    886 C           14.8539    -2.8877    -6.2939 C       1      m1    -0.0027
    887 C          -14.4650    -2.6012    -4.7979 C       1      m1    -0.0169
    888 C          -13.5112    -3.5150    -4.2839 C       1      m1     0.0432
    889 H          -13.5824    -6.5247    -3.6521 H       1      m1     0.0621
    890 C          -13.1399    -4.1327    -5.4592 C       1      m1    -0.0120
    891 C          -13.1684    -3.1249    -3.0159 C       1      m1    -0.0724
    892 C          -11.8708    -4.6855    -5.5222 C       1      m1     0.0668
    893 O          -11.5126    -4.9997    -2.9263 O       1      m1    -0.5030
    894 C          -10.7254    -4.9217    -6.1725 C       1      m1     0.0080
    895 C          -10.2943    -2.2652    -5.8526 C       1      m1     0.0039
    896 C           -9.2474    -4.6230    -6.0078 C       1      m1     0.0036
    897 C           -9.1020    -3.2431    -5.4842 C       1      m1     0.0031
    898 H           -8.6563    -3.9229    -3.0796 H       1      m1     0.0381
    899 C           -8.5353    -5.5795    -6.5049 C       1      m1     0.0239
    900 C           -8.1172    -4.5682    -2.4169 C       1      m1    -0.0346
    901 C           -7.7445    -3.0413    -5.8055 C       1      m1    -0.0008
    902 H           -7.8873    -4.5701    -4.2668 H       1      m1     0.0260
    903 C           -7.5635    -5.9982    -2.1878 C       1      m1    -0.0003
    904 C           -7.3086    -3.2954    -2.3449 C       1      m1    -0.0096
    905 C           -7.0914    -3.9457    -4.7655 C       1      m1    -0.0215
    906 C           -6.7027    -3.2345    -3.3902 C       1      m1     0.0025
    907 C           -5.9406    -5.8243    -6.4799 C       1      m1    -0.0009
    908 C           -5.7978    -4.7615    -5.5195 C       1      m1    -0.0107
    909 H           -4.9429    -4.7697    -4.6614 H       1      m1     0.0142
    910 H           -2.6562    -5.4853    -4.5479 H       1      m1     0.0231
    911 C           -1.7895    -5.7002    -2.4653 C       1      m1     0.0015
    912 C           -1.7856    -5.7550    -3.8736 C       1      m1    -0.0169
    913 H           -0.9508    -2.5065    -2.1735 H       1      m1     0.0162
    914 C           -0.2916    -6.1201    -4.0395 C       1      m1     0.0072
    915 C            2.0848    -2.1372    -3.5496 C       1      m1    -0.0040
    916 C            3.0892    -2.7614    -3.3744 C       1      m1    -0.0099
    917 C            4.1928    -3.2734    -3.0608 C       1      m1    -0.0006
    918 C            5.1740    -6.1671    -3.4270 C       1      m1     0.0006
    919 C            5.6226    -3.6378    -2.9884 C       1      m1    -0.0133
    920 H            6.3259    -3.0289    -3.7190 H       1      m1     0.0118
    921 C            6.1461    -5.2851    -3.1800 C       1      m1    -0.0037
    922 H            6.7734    -3.6549    -6.0422 H       1      m1     0.0214
    923 C            7.2999    -5.6036    -3.8503 C       1      m1     0.0055
    924 H            8.0758    -3.4581    -3.5310 H       1      m1     0.0165
    925 C            8.2068    -4.4745    -3.4874 C       1      m1    -0.0191
    926 H            7.8678    -6.4346    -6.4724 H       1      m1     0.0271
    927 C            9.5037    -4.5470    -2.7833 C       1      m1    -0.0024
    928 C           10.5442    -5.5846    -2.8086 C       1      m1     0.0006
    929 C           11.0276    -4.9031    -6.1255 C       1      m1    -0.0000
    930 C           11.3026    -5.7925    -3.9449 C       1      m1    -0.0006
    931 C           11.6465    -4.6854    -4.9605 C       1      m1    -0.0188
    932 H           12.4427    -3.8385    -4.8884 H       1      m1     0.0168
    933 C           13.4390    -2.3472    -2.2307 C       1      m1     0.0035
    934 H           13.1234    -5.5318    -2.5460 H       1      m1     0.0227
    935 C           14.9437    -1.6800    -3.7701 C       1      m1    -0.0020
    936 C          -14.5907     1.1117    -5.8818 C       1      m1    -0.0197
    937 H          -14.6774     0.0014    -5.6194 H       1      m1     0.0177
    938 C          -13.9998    -1.9784    -2.5229 C       1      m1    -0.0056
    939 C          -13.3871     1.6562    -4.1654 C       1      m1    -0.0075
    940 H          -12.5965    -0.0967    -4.0333 H       1      m1     0.0174
    941 C          -12.6391     0.8329    -3.5217 C       1      m1    -0.0214
    942 C          -11.3576     1.0731    -2.6407 C       1      m1    -0.0042
    943 H          -11.1191    -0.4024    -5.2201 H       1      m1     0.0194
    944 C          -10.2397    -0.9045    -5.6218 C       1      m1    -0.0171
    945 C          -10.1774     0.0945    -2.6513 C       1      m1    -0.0014
    946 C           -8.9251    -0.4921    -5.0031 C       1      m1    -0.0189
    947 C           -9.1176     0.2070    -3.6372 C       1      m1    -0.0118
    948 H           -7.9544     0.2523    -3.7060 H       1      m1     0.0149
    949 H           -8.1479    -0.9583    -5.3938 H       1      m1     0.0222
    950 H           -5.9814     1.1997    -3.6863 H       1      m1     0.0167
    951 C           -5.8159    -2.1597    -3.5707 C       1      m1    -0.0272
    952 H           -5.4815    -1.8718    -4.5551 H       1      m1     0.0228
    953 C           -5.2505     1.4064    -4.5589 C       1      m1    -0.0139
    954 C           -5.2573    -1.6581    -2.3840 C       1      m1     0.0013
    955 H           -4.5032     1.3993    -6.3016 H       1      m1     0.0163
    956 C           -4.3834     0.1959    -4.0350 C       1      m1    -0.0038
    957 C           -4.4756    -0.4451    -2.6388 C       1      m1    -0.0214
    958 C           -4.2005    -0.4887    -5.2957 C       1      m1    -0.0136
    959 C           -3.6322    -1.0751    -6.3263 C       1      m1     0.0152
    960 H           -3.4223    -0.6867    -2.2163 H       1      m1     0.0194
    961 C           -2.1146    -1.7176    -6.4886 C       1      m1    -0.1032
    962 C           -1.2637     1.6085    -5.4080 C       1      m1     0.2286
    963 C           -1.5036     0.1267    -5.5712 C       1      m1    -0.0243
    964 C           -0.9474    -1.2419    -5.8219 C       1      m1     0.0354
    965 H            0.1762    -0.9349    -3.5992 H       1      m1     0.0295
    966 C            0.3766    -1.6351    -5.6281 C       1      m1     0.0088
    967 C            0.9628    -1.6145    -4.0833 C       1      m1    -0.0207
    968 H            2.2402    -0.1748    -4.1902 H       1      m1     0.0393
    969 C            3.1106     0.4881    -4.6882 C       1      m1    -0.0078
    970 C            3.2202     1.7591    -5.3741 C       1      m1     0.0476
    971 C            4.2569    -0.3765    -2.9810 C       1      m1    -0.0020
    972 C            4.5264     0.3714    -4.1899 C       1      m1    -0.0008
    973 C            5.9745     0.9257    -4.8334 C       1      m1    -0.0482
    974 H            6.0067     0.9919    -5.9972 H       1      m1     0.0169
    975 H            6.8658     1.5553    -4.5176 H       1      m1     0.0232
    976 H            6.2745    -0.1203    -4.8582 H       1      m1     0.0170
    977 H            8.1870    -1.1049    -5.9445 H       1      m1     0.0158
    978 H            8.2118     1.3706    -5.9481 H       1      m1     0.0184
    979 C            9.3718     0.2207    -2.2440 C       1      m1     0.0150
    980 C            9.9160     1.2438    -3.2782 C       1      m1    -0.0034
    981 C           11.0808     1.2854    -3.8040 C       1      m1    -0.0048
    982 C           11.2206    -1.2703    -2.3074 C       1      m1     0.0065
    983 C           11.8574    -0.1512    -3.2205 C       1      m1    -0.0342
    984 H           12.1777    -0.4662    -4.2726 H       1      m1     0.0174
    985 H           12.6688     0.3126    -2.5895 H       1      m1     0.0234
    986 C           12.8715     1.8850    -5.3515 C       1      m1    -0.0129
    987 H           12.9040    -1.9482    -4.3406 H       1      m1     0.0132
    988 C           13.5540    -1.5721    -3.5053 C       1      m1    -0.0264
    989 H           13.7460     0.9747    -4.7542 H       1      m1     0.0148
    990 H          -14.1163     6.2958    -2.9498 H       1      m1     0.0089
    991 H          -13.8562     3.9295    -4.2070 H       1      m1     0.0144
    992 C          -13.7770     3.6918    -5.3299 C       1      m1    -0.0204
    993 C          -13.7566     2.2422    -5.2478 C       1      m1     0.0069
    994 C          -13.1224     4.4662    -6.4313 C       1      m1     0.0057
    995 C          -11.9470     4.9670    -5.8921 C       1      m1    -0.0277
    996 H          -11.3604     4.7459    -5.0193 H       1      m1     0.0176
    997 C          -11.6558     6.0856    -6.6887 C       1      m1     0.0043
    998 H           -9.5938     5.5140    -4.9786 H       1      m1     0.0220
    999 H           -9.3560     3.5396    -5.1364 H       1      m1     0.0235
   1000 C           -9.1696     4.5827    -4.7641 C       1      m1    -0.0397
   1001 C           -9.2061     5.3101    -2.8280 C       1      m1    -0.0078
   1002 C           -8.3411     4.5350    -3.4229 C       1      m1     0.0040
   1003 C           -8.1012     4.8863    -5.9477 C       1      m1     0.0010
   1004 C           -7.8163     3.4314    -6.3884 C       1      m1    -0.0236
   1005 H           -7.1558     6.6476    -4.6349 H       1      m1     0.0160
   1006 H           -7.2361     2.6002    -2.8297 H       1      m1     0.0191
   1007 C           -6.8573     4.4699    -3.2753 C       1      m1     0.0029
   1008 C           -6.6145     2.7376    -6.0050 C       1      m1    -0.0003
   1009 C           -6.9645     5.7197    -5.7713 C       1      m1    -0.0126
   1010 C           -6.4667     3.2705    -2.4137 C       1      m1    -0.0177
   1011 C           -6.2401     5.4366    -4.1433 C       1      m1    -0.0088
   1012 C           -5.4671     1.9056    -5.6592 C       1      m1    -0.0154
   1013 C           -5.0250     2.6783    -2.4256 C       1      m1    -0.0029
   1014 C           -4.7942     5.7270    -4.0700 C       1      m1    -0.0010
   1015 H           -4.3195     4.1006    -5.1084 H       1      m1     0.0223
   1016 C           -4.1398     3.6710    -2.6599 C       1      m1     0.0089
   1017 C           -4.0210     4.3822    -4.1507 C       1      m1    -0.0161
   1018 H           -3.2674     2.3853    -5.9231 H       1      m1     0.0175
   1019 C           -2.3785     4.8432    -4.1625 C       1      m1     0.0029
   1020 C           -2.1569     2.6582    -5.4882 C       1      m1    -0.0538
   1021 C           -1.5720     3.9653    -4.8470 C       1      m1    -0.0164
   1022 C           -1.4677     5.3380    -3.1861 C       1      m1    -0.0083
   1023 C           -0.5060     5.7019    -2.3168 C       1      m1    -0.0061
   1024 C           -0.0954     3.7357    -5.1341 C       1      m1     0.1896
   1025 O            0.1680     2.0767    -5.3805 O       1      m1    -0.4614
   1026 C            0.5238     4.8668    -5.4567 C       1      m1    -0.0426
   1027 C            1.0629     6.1153    -5.8564 C       1      m1     0.0150
   1028 H            3.3604     5.4795    -5.7422 H       1      m1     0.0186
   1029 C            3.4526     2.9844    -6.1696 C       1      m1    -0.0253
   1030 H            3.3580     3.8373    -5.5137 H       1      m1     0.0293
   1031 C            4.7579     4.1034    -3.0637 C       1      m1     0.0041
   1032 C            4.6370     5.3501    -2.3465 C       1      m1    -0.0237
   1033 C            5.7827     3.8819    -4.0847 C       1      m1    -0.0242
   1034 H            5.8883     4.3792    -5.0148 H       1      m1     0.0211
   1035 C            6.7859     3.1269    -3.4483 C       1      m1    -0.0016
   1036 H            8.1436     4.1721    -6.2103 H       1      m1     0.0214
   1037 C            8.1024     3.0803    -4.0692 C       1      m1    -0.0043
   1038 C            8.4288     3.5154    -5.3814 C       1      m1    -0.0227
   1039 C            8.7683     2.0710    -3.2348 C       1      m1    -0.0069
   1040 C            9.8037     4.1364    -5.3504 C       1      m1    -0.0017
   1041 C           10.5143     5.0077    -4.3978 C       1      m1    -0.0007
   1042 C           10.8101     3.0619    -5.6093 C       1      m1     0.0009
   1043 C           11.4416     4.3245    -2.2257 C       1      m1    -0.0030
   1044 C           11.3173     5.3047    -3.2315 C       1      m1    -0.0017
   1045 C           11.5517     4.9699    -6.5013 C       1      m1    -0.0080
   1046 C           11.6570     2.2578    -4.7437 C       1      m1    -0.0019
   1047 C           11.6779     3.4784    -6.6470 C       1      m1    -0.0026
   1048 C           13.0113     2.6057    -6.5473 C       1      m1     0.0044
   1049 C          -14.8550     9.9257    -5.8368 C       1      m1    -0.0206
   1050 C          -14.0491     9.6133    -5.0418 C       1      m1     0.0493
   1051 H          -13.7895     7.8608    -3.3784 H       1      m1     0.0171
   1052 C          -12.9635     8.5268    -3.2145 C       1      m1    -0.0184
   1053 C          -12.9966     9.5845    -4.3220 C       1      m1    -0.0337
   1054 H          -11.6534     6.0424    -3.3122 H       1      m1     0.0174
   1055 C          -11.5854     8.0277    -2.8406 C       1      m1     0.0055
   1056 C          -11.1835     6.6943    -2.6890 C       1      m1    -0.0221
   1057 C          -10.5519     9.1977    -2.8066 C       1      m1     0.0067
   1058 C          -10.1158     8.2334    -5.9823 C       1      m1     0.0358
   1059 C           -8.8105     8.8925    -5.8618 C       1      m1    -0.0136
   1060 C           -8.5452     9.9684    -4.9973 C       1      m1    -0.0169
   1061 H           -8.0271     8.8073    -6.6894 H       1      m1     0.0217
   1062 H           -7.6430    10.2849    -4.5707 H       1      m1     0.0129
   1063 H           -5.7822     8.9177    -5.1656 H       1      m1     0.0153
   1064 C           -4.8195     9.5200    -5.2716 C       1      m1    -0.0095
   1065 C           -4.1898     6.9855    -4.2040 C       1      m1    -0.0067
   1066 C           -3.2254     9.1286    -5.2041 C       1      m1     0.0020
   1067 C           -3.1442     7.8881    -4.4119 C       1      m1    -0.0174
   1068 C           -2.1939    10.0033    -5.0260 C       1      m1    -0.0045
   1069 H           -2.4978     6.9133    -4.4370 H       1      m1     0.0192
   1070 H            0.1393     7.9185    -6.4355 H       1      m1     0.0155
   1071 H            0.7637     7.1471    -3.4500 H       1      m1     0.0222
   1072 C            1.2601     7.1048    -2.5925 C       1      m1    -0.0229
   1073 H            2.5613     8.3346    -4.5337 H       1      m1     0.0220
   1074 C            2.4869     6.2277    -5.7284 C       1      m1    -0.0216
   1075 C            2.4533     7.8052    -2.3399 C       1      m1    -0.0031
   1076 C            2.9042     9.2386    -5.0265 C       1      m1    -0.0217
   1077 C            4.2079     9.0599    -4.5719 C       1      m1    -0.0016
   1078 H            4.7257     7.1879    -6.2572 H       1      m1     0.0226
   1079 C            5.1791     7.9352    -2.7122 C       1      m1    -0.0210
   1080 C            5.0697     6.4141    -3.2185 C       1      m1     0.0000
   1081 C            5.2819     8.7335    -3.9901 C       1      m1     0.0082
   1082 C            5.7223     6.7303    -5.8800 C       1      m1    -0.0146
   1083 C            5.5515     6.3702    -4.4573 C       1      m1    -0.0086
   1084 C            6.6882     9.0922    -4.3503 C       1      m1    -0.0482
   1085 C            6.8981     9.1491    -5.7958 C       1      m1     0.0366
   1086 C            7.8318     9.0287    -3.4171 C       1      m1     0.2472
   1087 H            7.9191     6.4610    -6.3286 H       1      m1     0.0269
   1088 C            7.8165     7.9890    -2.5700 C       1      m1    -0.0576
   1089 C            9.1213     7.2643    -2.1767 C       1      m1    -0.0338
   1090 O            9.2316     9.4335    -3.7278 O       1      m1    -0.4935
   1091 C            9.9628     8.1450    -3.2076 C       1      m1     0.2242
   1092 C           11.1798     7.6525    -3.5218 C       1      m1    -0.0478
   1093 C           11.8531     7.6524    -6.2188 C       1      m1    -0.0543
   1094 C           11.7273     8.2978    -4.9276 C       1      m1     0.0616
   1095 C           12.0293     6.6045    -2.6498 C       1      m1    -0.0130
   1096 H           12.0777     9.5354    -2.5569 H       1      m1     0.0529
   1097 C           12.6778     9.7108    -3.5202 C       1      m1    -0.0116
   1098 C           13.0841     8.4079    -4.3667 C       1      m1    -0.0232
   1099 C           13.4486     7.3574    -3.1686 C       1      m1    -0.0322
   1100 H           13.8387     8.5695    -5.1684 H       1      m1     0.0422
   1101 H           14.0333     6.6252    -3.4652 H       1      m1     0.0177
   1102 O          -12.5319    12.2145    -4.3255 O       1      m1    -0.4554
   1103 H          -12.8636    13.5795    -5.6298 H       1      m1     0.1020
   1104 C          -12.1941    10.9339    -3.8790 C       1      m1     0.2731
   1105 C          -10.7310    10.5484    -3.4426 C       1      m1    -0.0424
   1106 H          -10.2455    12.6482    -6.5472 H       1      m1     0.0442
   1107 C           -9.9170    13.6563    -5.9011 C       1      m1    -0.0132
   1108 H           -9.7576    12.0440    -4.4534 H       1      m1     0.0356
   1109 C           -9.7766    10.8321    -4.5249 C       1      m1     0.0141
   1110 C           -8.5227    14.0088    -5.5425 C       1      m1    -0.0050
   1111 H           -7.4734    12.5178    -5.8527 H       1      m1     0.0219
   1112 H           -7.3141    14.1278    -2.7966 H       1      m1     0.0188
   1113 C           -7.4313    13.3197    -6.4660 C       1      m1    -0.0186
   1114 H           -7.4681    10.0747    -2.6857 H       1      m1     0.0157
   1115 C           -6.5957    13.6358    -3.1392 C       1      m1    -0.0244
   1116 H           -5.9376    10.2810    -3.5655 H       1      m1     0.0182
   1117 C           -5.0943    14.0867    -3.2464 C       1      m1    -0.0232
   1118 C           -5.0576    10.3755    -4.0443 C       1      m1    -0.0243
   1119 C           -4.5810    10.8342    -6.1750 C       1      m1    -0.0163
   1120 H           -4.4412    13.4173    -3.8969 H       1      m1     0.0202
   1121 H           -4.4694    11.7006    -5.7615 H       1      m1     0.0254
   1122 C           -3.8728    10.6233    -3.2285 C       1      m1     0.0006
   1123 C           -2.4766    10.5785    -2.5960 C       1      m1     0.0008
   1124 C           -1.8599    10.7941    -3.8928 C       1      m1     0.0028
   1125 C           -1.6948    10.5668    -6.0708 C       1      m1     0.0000
   1126 C           -0.8092    13.4190    -5.8543 C       1      m1     0.0033
   1127 C           -0.5616    11.2621    -3.3874 C       1      m1     0.0029
   1128 C            0.2765    13.2482    -4.6521 C       1      m1     0.0037
   1129 C            0.5594    11.7289    -4.2407 C       1      m1    -0.0170
   1130 C            0.7698    11.4617    -5.7929 C       1      m1     0.0047
   1131 C            1.0010    14.4002    -4.0882 C       1      m1     0.0062
   1132 H            1.3961    11.3692    -3.6114 H       1      m1     0.0176
   1133 C            1.8368    10.9930    -5.9883 C       1      m1    -0.0109
   1134 C            2.3298    13.6483    -4.2670 C       1      m1    -0.0187
   1135 H            3.1353    13.6326    -4.8853 H       1      m1     0.0187
   1136 C            2.9352    13.8549    -2.9797 C       1      m1    -0.0201
   1137 C            3.1635    10.4835    -5.8476 C       1      m1     0.0030
   1138 H            2.9179    11.3840    -3.7408 H       1      m1     0.0205
   1139 C            3.6923    11.5092    -2.9568 C       1      m1    -0.0188
   1140 C            4.0042    12.9278    -2.7235 C       1      m1     0.0015
   1141 C            4.3388    10.8527    -6.5988 C       1      m1     0.0029
   1142 C            5.4186    13.4105    -2.2677 C       1      m1    -0.0081
   1143 H            5.7652    10.7202    -2.7860 H       1      m1     0.0281
   1144 H            7.8706    13.6130    -4.8322 H       1      m1     0.0218
   1145 H            8.4208    12.9550    -6.4676 H       1      m1     0.0229
   1146 C            8.5365    12.9165    -5.4868 C       1      m1    -0.0372
   1147 C            9.4572    13.9060    -2.5448 C       1      m1    -0.0031
   1148 C            9.6907    12.3739    -5.1786 C       1      m1     0.0306
   1149 C           10.1574    13.0246    -2.3733 C       1      m1     0.0032
   1150 C           10.8158    11.8395    -4.6573 C       1      m1     0.0083
   1151 C           11.0940    12.3367    -3.2007 C       1      m1     0.0083
   1152 H           11.5261    11.3202    -5.1667 H       1      m1     0.0434
   1153 C           13.1373    10.6982    -3.9585 C       1      m1     0.0168
   1154 C           13.5439    13.1907    -3.3671 C       1      m1     0.2188
   1155 C           13.5363    11.9330    -4.2205 C       1      m1    -0.0384
   1156 C           13.9255    12.6282    -5.6428 C       1      m1    -0.0337
   1157 C           14.1558    13.9766    -5.3181 C       1      m1     0.2190
   1158 C           14.5070    10.7000    -6.6386 C       1      m1     0.2506
   1159 C          -14.9283   -11.6694     2.1178 C       1      m1     0.0017
   1160 C          -13.8102   -11.5925     1.2058 C       1      m1    -0.0032
   1161 C          -13.0450   -11.4179     0.2433 C       1      m1     0.0200
   1162 H          -12.0205   -10.3812    -1.0244 H       1      m1     0.0442
   1163 C          -11.8107   -11.4425    -0.6922 C       1      m1    -0.0616
   1164 H          -12.1995   -12.2286    -1.4324 H       1      m1     0.0487
   1165 H          -10.8676   -11.5113    -0.2377 H       1      m1     0.0368
   1166 C          -10.9392   -14.0296     1.7861 C       1      m1    -0.0099
   1167 H           -9.5478   -11.6603    -1.6571 H       1      m1     0.0182
   1168 C           -9.2810   -14.1579     0.1991 C       1      m1     0.0098
   1169 C           -8.6365   -11.4310    -1.2044 C       1      m1    -0.0340
   1170 C           -8.1043   -14.4685     0.1342 C       1      m1     0.0253
   1171 H           -8.0720   -12.2672    -0.7158 H       1      m1     0.0409
   1172 C           -6.3352   -10.4068    -1.6352 C       1      m1    -0.0018
   1173 H           -4.4895   -13.6221     1.4299 H       1      m1     0.0404
   1174 C           -4.8412   -13.8890    -2.0618 C       1      m1     0.0009
   1175 C           -4.8844   -14.4326    -0.6073 C       1      m1    -0.0036
   1176 C           -4.4784   -11.0392    -0.0610 C       1      m1    -0.0209
   1177 C           -4.3773   -11.6042     1.2673 C       1      m1     0.0167
   1178 H           -4.3088   -11.9461    -0.7836 H       1      m1     0.0244
   1179 H           -1.7066   -11.6364    -0.7315 H       1      m1     0.0222
   1180 C           -1.3243   -12.6735     1.2568 C       1      m1    -0.0039
   1181 C           -1.2388   -13.9055     0.6324 C       1      m1    -0.0025
   1182 C           -1.2793   -11.0616    -1.4594 C       1      m1    -0.0158
   1183 C           -1.0490   -11.5298     1.8724 C       1      m1    -0.0157
   1184 C           -0.3717   -10.5347     1.0006 C       1      m1    -0.0003
   1185 C            0.2751   -14.4264     0.4528 C       1      m1     0.0003
   1186 C            0.2356   -10.9661    -1.1304 C       1      m1     0.0011
   1187 C            0.7185   -11.1549     0.2139 C       1      m1     0.0029
   1188 C            1.1807   -10.9558    -2.1935 C       1      m1     0.0005
   1189 C            1.5672   -12.3168     0.6394 C       1      m1    -0.0153
   1190 C            2.0560   -12.0322     1.9130 C       1      m1     0.0072
   1191 H            2.0949   -13.0187    -0.1843 H       1      m1     0.0188
   1192 C            3.5168   -13.9480     1.6282 C       1      m1     0.0012
   1193 C            4.5699   -10.6565     0.6390 C       1      m1    -0.0131
   1194 H            4.2379   -11.3532    -0.2310 H       1      m1     0.0172
   1195 C            5.5073   -11.6348     1.4000 C       1      m1    -0.0629
   1196 H            5.6347   -12.3486     0.6645 H       1      m1     0.0257
   1197 H            6.3463   -11.1200     1.5750 H       1      m1     0.0186
   1198 C            7.6529   -14.1690     0.0194 C       1      m1     0.0009
   1199 H            8.6671   -12.7688     1.7994 H       1      m1     0.0139
   1200 C            8.4452   -13.0246     0.6464 C       1      m1    -0.0281
   1201 H            9.7330   -10.5870     1.5737 H       1      m1     0.0176
   1202 C            9.5658   -12.8506    -0.2577 C       1      m1    -0.0041
   1203 C           10.2044   -11.2754     2.1644 C       1      m1    -0.0473
   1204 H           10.2744   -12.2669     1.7726 H       1      m1     0.0206
   1205 C           10.6545   -12.7811    -0.9498 C       1      m1    -0.0104
   1206 H           11.5480   -10.7195    -1.4187 H       1      m1     0.0148
   1207 H           12.0631   -14.4121    -1.7861 H       1      m1     0.0434
   1208 C           12.0318   -12.9563    -0.3473 C       1      m1     0.0022
   1209 C           12.3555   -10.7580    -0.5157 C       1      m1    -0.0146
   1210 C           12.6502   -11.8244     0.3969 C       1      m1     0.0083
   1211 C           12.5195   -14.1435    -0.9424 C       1      m1    -0.0144
   1212 C           13.6116   -11.8626     1.6155 C       1      m1     0.0023
   1213 C          -14.4762    -7.9155     0.6334 C       1      m1     0.0019
   1214 C          -14.4230    -6.4753     0.2983 C       1      m1     0.0004
   1215 C          -13.1730    -8.4157     0.4367 C       1      m1    -0.0123
   1216 H          -13.0536    -9.4799     0.6943 H       1      m1     0.0238
   1217 C          -12.1944    -7.4597     1.1152 C       1      m1     0.0007
   1218 C          -11.1353    -7.6530     0.5139 C       1      m1     0.0134
   1219 C           -9.9560    -7.5690    -0.0186 C       1      m1    -0.0083
   1220 C           -8.8576    -9.8730    -0.6997 C       1      m1     0.0207
   1221 C           -8.6955    -7.9773     0.4155 C       1      m1     0.0157
   1222 C           -8.5782    -6.3097     2.0803 C       1      m1     0.0181
   1223 C           -7.9219    -9.0188    -0.2628 C       1      m1    -0.0056
   1224 C           -7.8374    -7.2780     1.2779 C       1      m1    -0.0107
   1225 C           -6.7222    -7.8357     2.0519 C       1      m1     0.0034
   1226 C           -6.7117    -9.5083     0.6046 C       1      m1     0.0231
   1227 C           -6.2675    -9.0480     1.7773 C       1      m1     0.0031
   1228 C           -5.7170   -10.2041    -0.3242 C       1      m1     0.0010
   1229 C           -5.3062    -6.8614    -1.6532 C       1      m1    -0.0009
   1230 C           -4.0532    -6.6745    -0.9440 C       1      m1    -0.0232
   1231 H           -3.9561    -7.4553    -0.0171 H       1      m1     0.0141
   1232 H           -2.4349    -9.0842    -2.2412 H       1      m1     0.0175
   1233 C           -1.6371    -9.5118    -1.5688 C       1      m1    -0.0190
   1234 C           -0.8412    -8.5827    -0.6169 C       1      m1    -0.0010
   1235 C           -0.7948    -7.1997    -0.9121 C       1      m1    -0.0025
   1236 C           -0.4759    -9.2145     0.7230 C       1      m1    -0.0054
   1237 C           -0.0138    -8.4178     1.5012 C       1      m1     0.0055
   1238 C            1.5191    -6.5811     1.4407 C       1      m1     0.0034
   1239 H            1.7623    -7.8342    -0.7843 H       1      m1     0.0232
   1240 C            2.7137    -7.2105    -0.9865 C       1      m1    -0.0177
   1241 C            3.4914    -6.9656    -2.1591 C       1      m1     0.0017
   1242 C            5.0118    -9.3427     0.4295 C       1      m1    -0.0096
   1243 C            5.7651    -8.2414     0.2250 C       1      m1     0.0004
   1244 C            6.0599    -7.1190     1.1264 C       1      m1    -0.0026
   1245 C            6.4749    -8.1580    -1.1835 C       1      m1    -0.0497
   1246 H            6.6351    -7.0767    -1.0779 H       1      m1     0.0277
   1247 C            7.2272    -6.9688     2.1604 C       1      m1    -0.0105
   1248 H            7.3595    -8.9099    -1.0985 H       1      m1     0.0176
   1249 H            8.1033    -7.2609     1.3763 H       1      m1     0.0132
   1250 C           10.4635    -6.4528    -1.6000 C       1      m1    -0.0216
   1251 H           10.8244    -7.3524    -1.5006 H       1      m1     0.0180
   1252 H           11.3048    -9.0636     1.1283 H       1      m1     0.0182
   1253 H           11.9207    -9.3287    -2.2232 H       1      m1     0.0116
   1254 C           12.1127    -8.2077     1.2485 C       1      m1    -0.0201
   1255 C           12.3149    -6.8556     0.9101 C       1      m1    -0.0001
   1256 C           13.0103    -8.9987    -1.7978 C       1      m1    -0.0400
   1257 C           13.3008    -7.5501    -1.5916 C       1      m1     0.0133
   1258 C           13.2952    -9.2209     1.0549 C       1      m1    -0.0001
   1259 C           13.2430    -9.6992    -0.3200 C       1      m1     0.0198
   1260 C           13.2088    -6.8567    -0.2860 C       1      m1    -0.0021
   1261 C           14.5301    -8.6680     1.6722 C       1      m1    -0.0050
   1262 C          -14.8240    -3.4479    -0.7188 C       1      m1    -0.0043
   1263 C          -13.4086    -5.2897     0.6400 C       1      m1     0.0049
   1264 C          -13.4359    -3.8154    -0.0716 C       1      m1     0.0012
   1265 H          -13.2757    -3.0132     0.6648 H       1      m1     0.0474
   1266 C          -12.3146    -3.9653    -2.3467 C       1      m1     0.2852
   1267 C          -12.3958    -5.8927     1.4232 C       1      m1    -0.0111
   1268 C          -12.4351    -3.6903    -1.0371 C       1      m1    -0.0756
   1269 C          -11.3043    -4.7466     1.3178 C       1      m1     0.0067
   1270 C          -11.1509    -3.3268    -0.6696 C       1      m1     0.0184
   1271 C          -10.5678    -4.5539     0.0681 C       1      m1     0.0111
   1272 C          -10.4377    -5.6215    -1.7424 C       1      m1     0.1559
   1273 C          -10.5699    -2.1956    -1.3401 C       1      m1    -0.0001
   1274 C           -9.8237    -5.8551    -0.1001 C       1      m1    -0.0551
   1275 H           -9.6335    -6.4639     1.8303 H       1      m1     0.0247
   1276 H           -8.7820    -5.7771     0.2716 H       1      m1     0.0322
   1277 H           -8.6923    -4.6164    -1.4537 H       1      m1     0.0172
   1278 H           -8.3438    -3.3659    -0.3745 H       1      m1     0.0412
   1279 C           -7.5484    -2.8654     0.0813 C       1      m1    -0.0660
   1280 C           -7.1395    -3.3513     1.3116 C       1      m1     0.2726
   1281 C           -7.0516    -2.5654    -1.2570 C       1      m1     0.0134
   1282 C           -6.4293    -5.9059    -1.2595 C       1      m1    -0.0245
   1283 H           -6.3790    -5.2150    -0.4710 H       1      m1     0.0190
   1284 C           -5.7779    -3.2700     1.4445 C       1      m1    -0.1348
   1285 H           -4.9874    -2.9304     0.7315 H       1      m1     0.0576
   1286 C           -3.6210    -5.3762    -0.6242 C       1      m1    -0.0009
   1287 C           -3.6399    -5.8355     2.1919 C       1      m1     0.0080
   1288 C           -3.2985    -5.2941     0.9520 C       1      m1     0.0055
   1289 C           -2.7485    -4.8759    -1.6308 C       1      m1    -0.0076
   1290 C           -2.1355    -4.4574     0.5961 C       1      m1    -0.0003
   1291 C           -2.1086    -3.8545    -0.7908 C       1      m1    -0.0017
   1292 C           -2.0403    -3.2407     1.2622 C       1      m1     0.0164
   1293 C           -1.1271    -2.8969    -1.0287 C       1      m1    -0.0221
   1294 H            0.2687    -4.9490    -1.1093 H       1      m1     0.0191
   1295 C           -0.3224    -5.9415    -1.5662 C       1      m1    -0.0150
   1296 C            0.0251    -2.7282    -0.1312 C       1      m1    -0.0003
   1297 C            0.9073    -2.5028     0.7548 C       1      m1    -0.0167
   1298 C            2.6348    -5.7365     1.1762 C       1      m1    -0.0248
   1299 H            2.9978    -4.7030     1.2388 H       1      m1     0.0175
   1300 C            3.0480    -6.1536    -0.1732 C       1      m1     0.0065
   1301 C            4.5646    -5.5455    -0.4142 C       1      m1     0.0078
   1302 H            5.1254    -3.2404     0.2248 H       1      m1     0.0174
   1303 C            4.7717    -4.0540    -0.5066 C       1      m1    -0.0198
   1304 C            5.5415    -5.9597     0.4740 C       1      m1    -0.0221
   1305 C            5.9052    -3.3698    -1.4249 C       1      m1    -0.0156
   1306 H            6.3539    -5.2300     0.5545 H       1      m1     0.0166
   1307 H            6.6732    -3.8569    -0.8233 H       1      m1     0.0174
   1308 C            8.1392    -2.6608     2.0318 C       1      m1    -0.0025
   1309 C            8.4183    -3.0721     0.6958 C       1      m1    -0.0075
   1310 C            8.7877    -3.4555    -0.4472 C       1      m1    -0.0215
   1311 H            8.1298    -2.5551    -1.0987 H       1      m1     0.0133
   1312 C            9.6066    -4.3107    -1.1182 C       1      m1     0.0007
   1313 H            9.9497    -5.7690     0.2508 H       1      m1     0.0185
   1314 C            9.9535    -5.5820    -0.7182 C       1      m1    -0.0195
   1315 H           10.9226    -2.2382    -0.3609 H       1      m1     0.0311
   1316 H           11.1806    -4.0741     1.4667 H       1      m1     0.0223
   1317 C           11.8267    -2.9223    -0.4471 C       1      m1    -0.0095
   1318 C           12.1912    -4.4436     1.6723 C       1      m1    -0.0198
   1319 C           11.9345    -2.3924    -1.8476 C       1      m1    -0.0087
   1320 C           12.5159    -5.8042     2.0046 C       1      m1    -0.0085
   1321 C           12.7871    -3.6877     0.3083 C       1      m1     0.0185
   1322 C           14.0739    -4.2174    -0.1522 C       1      m1     0.0015
   1323 C           14.3138    -5.8994    -0.1797 C       1      m1     0.0009
   1324 C           14.7061    -2.6908    -1.7932 C       1      m1    -0.0029
   1325 C          -14.7413    -0.6970     0.3337 C       1      m1    -0.0254
   1326 C          -14.5650     1.4884    -0.6672 C       1      m1     0.0048
   1327 H          -14.8971    -1.7888     0.2606 H       1      m1     0.0525
   1328 C          -13.9528     0.1773    -0.5399 C       1      m1    -0.0050
   1329 H          -13.5002    -1.0044    -2.6454 H       1      m1     0.0183
   1330 H          -13.3476     0.9937     2.2046 H       1      m1     0.0736
   1331 C          -12.5057     0.5514    -0.3031 C       1      m1     0.0037
   1332 C          -11.9221     0.7958    -1.4822 C       1      m1    -0.0085
   1333 C          -11.7230     0.5154     0.9525 C       1      m1     0.0108
   1334 C          -10.4571     1.1902     0.6508 C       1      m1    -0.0095
   1335 C          -10.0964    -1.1950    -1.7678 C       1      m1     0.0030
   1336 C           -9.3954     1.8948     0.1313 C       1      m1    -0.0048
   1337 C           -7.4010     0.7938    -0.7188 C       1      m1    -0.0112
   1338 H           -7.3841     0.6586    -1.8967 H       1      m1     0.0168
   1339 H           -6.2973     0.5946     1.3073 H       1      m1     0.0206
   1340 C           -6.5832     0.2254     0.1417 C       1      m1    -0.0029
   1341 C           -5.8647    -1.6173    -1.2345 C       1      m1    -0.0039
   1342 C           -5.4149    -0.6354    -0.4475 C       1      m1     0.0040
   1343 C           -4.5772     0.2167    -1.1786 C       1      m1    -0.0084
   1344 C           -4.4414     1.6821    -1.3976 C       1      m1    -0.0023
   1345 H           -3.0589     0.0890     0.6258 H       1      m1     0.0263
   1346 C           -2.3246    -1.8401     1.0457 C       1      m1     0.0119
   1347 C           -2.2150    -0.3943     0.8915 C       1      m1    -0.0188
   1348 C           -1.3675    -0.0000     2.0373 C       1      m1    -0.0156
   1349 C            0.8244    -1.7764     2.1920 C       1      m1     0.0037
   1350 H            1.2974     1.5332     1.4867 H       1      m1     0.0215
   1351 H            1.8465    -2.2798    -0.0273 H       1      m1     0.0153
   1352 C            3.4812     1.9664    -0.1161 C       1      m1     0.0056
   1353 H            3.4888    -1.5786    -1.5109 H       1      m1     0.0209
   1354 C            3.6303    -0.7941     1.7931 C       1      m1    -0.0048
   1355 C            4.4333    -1.3533    -1.9423 C       1      m1    -0.0134
   1356 C            4.3025    -0.6972     0.6824 C       1      m1    -0.0067
   1357 C            4.9074     1.7614    -0.2818 C       1      m1    -0.0161
   1358 H            5.7026     1.6888     0.5654 H       1      m1     0.0323
   1359 C            5.5891    -1.1561    -0.0313 C       1      m1     0.0089
   1360 C            5.7641    -1.6985    -1.5826 C       1      m1    -0.0162
   1361 C            6.4821    -0.2121     0.5344 C       1      m1    -0.0585
   1362 H            6.6508    -1.1885    -2.2407 H       1      m1     0.0146
   1363 C            7.5448     0.4033     0.9665 C       1      m1     0.1262
   1364 C            7.9332     1.8949    -2.0805 C       1      m1     0.0217
   1365 C            8.4661     0.8769    -1.4661 C       1      m1    -0.0580
   1366 C            8.5581     0.7726     0.0040 C       1      m1     0.1929
   1367 O            8.6815     1.5646     1.2357 O       1      m1    -0.4494
   1368 H            9.4776    -1.3447    -0.6860 H       1      m1     0.0179
   1369 C            9.8956    -0.9389    -1.7489 C       1      m1    -0.0239
   1370 O           13.0324    -0.1711     1.9711 O       1      m1    -0.4582
   1371 C           14.1047     1.1128    -0.0610 C       1      m1    -0.0607
   1372 C           14.0539    -0.0093     0.7194 C       1      m1     0.2407
   1373 C          -14.5633     3.0908     1.1505 C       1      m1     0.0157
   1374 C          -13.9749     2.6543    -0.0972 C       1      m1    -0.0054
   1375 C          -12.9918     3.4945    -0.8484 C       1      m1    -0.0187
   1376 C          -12.8565     5.9864     0.4564 C       1      m1     0.0207
   1377 C          -12.8863     6.0356     2.0203 C       1      m1    -0.0049
   1378 C          -12.8542     4.7795    -0.2066 C       1      m1    -0.0078
   1379 H          -11.8764     3.2531    -1.1544 H       1      m1     0.0186
   1380 H           -9.9195     5.3759     1.7886 H       1      m1     0.0315
   1381 C           -9.4578     6.1252    -0.7044 C       1      m1    -0.0147
   1382 C           -9.4095     4.5887     1.1521 C       1      m1    -0.0224
   1383 C           -9.1962     3.4652     1.9681 C       1      m1    -0.0007
   1384 C           -9.1173     4.6132    -0.1929 C       1      m1     0.0059
   1385 C           -8.0855     2.1310    -0.2191 C       1      m1    -0.0040
   1386 C           -8.3096     3.5746    -0.7057 C       1      m1    -0.0029
   1387 C           -7.0046     4.1939    -1.1048 C       1      m1     0.0019
   1388 C           -6.8635     5.6317    -0.9229 C       1      m1     0.0020
   1389 H           -3.8252     2.6982     1.3071 H       1      m1     0.0155
   1390 C           -3.6182     2.5914    -0.6764 C       1      m1     0.0020
   1391 C           -3.1367     3.5512    -1.5703 C       1      m1    -0.0188
   1392 C           -2.9705     2.3524     0.7367 C       1      m1    -0.0262
   1393 H           -3.2611     4.0996     2.2039 H       1      m1     0.0146
   1394 H           -2.5643     4.5063    -1.5311 H       1      m1     0.0216
   1395 C           -1.5479     2.2027     0.9838 C       1      m1     0.0044
   1396 H           -1.1686     3.3224    -0.3535 H       1      m1     0.0241
   1397 C           -0.4899     2.8407     0.3613 C       1      m1    -0.0192
   1398 C            0.6720     6.0363    -1.7571 C       1      m1     0.0075
   1399 C            0.6090     3.6018     0.9811 C       1      m1     0.0010
   1400 C            1.1285     4.6544     0.3109 C       1      m1     0.0002
   1401 C            1.6769     5.5365    -0.5608 C       1      m1    -0.0195
   1402 C            1.7004     2.6350     1.5374 C       1      m1    -0.0164
   1403 H            2.2983     2.8054    -1.8371 H       1      m1     0.0349
   1404 H            2.6069     5.9845    -0.5056 H       1      m1     0.0219
   1405 C            3.0685     2.9987     0.8251 C       1      m1    -0.0015
   1406 C            3.1847     2.5873    -1.4471 C       1      m1    -0.0190
   1407 C            4.0890     3.4604     1.7335 C       1      m1     0.0088
   1408 C            4.2387     3.1266    -2.1316 C       1      m1     0.0024
   1409 H            4.6246     5.4595    -1.1810 H       1      m1     0.0135
   1410 C            5.2583     4.2750     1.2467 C       1      m1    -0.0235
   1411 H            5.1996     4.6743     0.3231 H       1      m1     0.0165
   1412 C            5.5171     2.3499    -1.3822 C       1      m1     0.0026
   1413 C            6.6716     2.4321    -2.2442 C       1      m1    -0.0114
   1414 H            7.5934     3.6265     0.1635 H       1      m1     0.0442
   1415 H            7.7657     5.6044    -0.9664 H       1      m1     0.0198
   1416 C            8.1127     4.2946     0.7337 C       1      m1     0.0128
   1417 C            8.4913     4.3666     2.1373 C       1      m1     0.0127
   1418 C            8.2975     5.5676    -0.0020 C       1      m1    -0.0309
   1419 H            9.1088     6.1254    -2.2767 H       1      m1     0.0247
   1420 H           10.9222     2.2457    -1.7412 H       1      m1     0.0297
   1421 C           11.5083     3.3049     1.8009 C       1      m1     0.0060
   1422 C           11.4749     3.1556    -1.4633 C       1      m1    -0.0114
   1423 C           12.0889     2.0704     1.3459 C       1      m1    -0.0263
   1424 C           12.1965     4.0907     0.9602 C       1      m1    -0.0027
   1425 C           12.4587     3.3697    -0.4648 C       1      m1    -0.0008
   1426 C           12.6820     5.5292     0.8955 C       1      m1     0.0017
   1427 C           12.9305     2.0877     0.1942 C       1      m1     0.0360
   1428 C           13.6541     5.7072     0.0606 C       1      m1     0.0033
   1429 H           13.8170     3.2700     2.9618 H       1      m1     0.0433
   1430 C           14.5179     6.1055    -0.9098 C       1      m1    -0.0023
   1431 C           14.3443     3.4970     2.0119 C       1      m1    -0.0094
   1432 H          -14.7767     9.1701    -1.5538 H       1      m1     0.0239
   1433 C          -14.3644     6.4650    -1.7218 C       1      m1    -0.0242
   1434 C          -13.8399     7.4805    -1.1060 C       1      m1     0.0017
   1435 C          -13.7689     8.9593    -1.6081 C       1      m1    -0.0300
   1436 C          -12.9932     7.4334    -0.1298 C       1      m1    -0.0357
   1437 C          -12.5793     9.7984    -0.8080 C       1      m1    -0.0681
   1438 C          -12.3085     8.7817    -0.0354 C       1      m1     0.2558
   1439 H          -10.8292     9.9560     0.7448 H       1      m1     0.2818
   1440 O          -11.0414     9.0348     0.8052 O       1      m1    -0.6233
   1441 H          -10.4040     6.3364    -0.2698 H       1      m1     0.0457
   1442 C           -9.7583     6.2478    -2.2115 C       1      m1     0.0035
   1443 C           -9.4101     8.7609    -2.1395 C       1      m1     0.0037
   1444 C           -8.4503     7.3735    -0.1780 C       1      m1     0.0071
   1445 H           -8.3159     7.6437     0.9200 H       1      m1     0.0423
   1446 C           -8.5867     8.4060    -1.3117 C       1      m1     0.0131
   1447 C           -7.0373     8.9700    -1.3004 C       1      m1    -0.0033
   1448 C           -7.0751     6.8118    -0.6238 C       1      m1    -0.0030
   1449 C           -6.1829     8.0722    -0.6177 C       1      m1    -0.0176
   1450 H           -5.3543     8.3420     0.0201 H       1      m1     0.0201
   1451 H           -4.2297     7.0286     2.3586 H       1      m1     0.0142
   1452 H           -0.0091     8.6077     0.9738 H       1      m1     0.0220
   1453 H           -0.0874     6.2918     1.1634 H       1      m1     0.0192
   1454 C            0.6756     9.2429     1.2833 C       1      m1    -0.0208
   1455 C            1.9543     9.1463     0.6128 C       1      m1    -0.0004
   1456 C            3.3251     8.9303     0.7039 C       1      m1    -0.0027
   1457 H            3.2620    10.1962    -0.9173 H       1      m1     0.0205
   1458 C            3.7056     8.7183     2.1361 C       1      m1     0.0013
   1459 C            3.8043     7.9920    -1.9089 C       1      m1    -0.0036
   1460 C            4.0261     8.2123    -0.2699 C       1      m1    -0.0100
   1461 C            5.2396     7.9278     0.2630 C       1      m1    -0.0018
   1462 C            5.5229    10.3423    -1.8851 C       1      m1    -0.0190
   1463 H            6.0010     7.5270    -2.0257 H       1      m1     0.0214
   1464 H            6.5889     6.4858     0.9910 H       1      m1     0.0200
   1465 C            6.4065     7.4298     0.8145 C       1      m1    -0.0298
   1466 C            7.1341     8.5202     1.6270 C       1      m1     0.0046
   1467 C            8.0483     9.5809     0.9244 C       1      m1    -0.0039
   1468 H            8.7285     7.0092     1.2321 H       1      m1     0.0250
   1469 C            8.7788     9.4187    -0.2062 C       1      m1     0.0328
   1470 C            8.8805     6.8317     0.1387 C       1      m1     0.0025
   1471 C            8.8448     7.9948    -0.7695 C       1      m1     0.0375
   1472 C           11.0072    10.0960    -0.8160 C       1      m1     0.2102
   1473 O           11.6360     8.7656    -0.2430 O       1      m1    -0.5116
   1474 H           11.7522     6.8353    -1.6356 H       1      m1     0.0671
   1475 C           12.3892     6.6309     1.9161 C       1      m1     0.0263
   1476 C           12.8619     9.3186     0.4036 C       1      m1     0.2284
   1477 H           13.9137     7.8628    -2.4138 H       1      m1     0.0283
   1478 C           13.8770     8.6988     1.3389 C       1      m1    -0.0550
   1479 H          -14.8787     8.9736     1.0817 H       1      m1     0.0245
   1480 H          -14.6203    14.3125     0.1623 H       1      m1     0.0342
   1481 C          -14.4921    12.1253    -0.4524 C       1      m1     0.0112
   1482 C          -14.3205    13.7941     2.3041 C       1      m1    -0.0053
   1483 C          -13.1360    12.0754    -0.3229 C       1      m1    -0.0033
   1484 C          -13.0992    13.6102     1.6054 C       1      m1    -0.0066
   1485 C          -12.6301    13.1394     0.3090 C       1      m1     0.0020
   1486 C          -12.3149    11.0933    -0.8690 C       1      m1     0.0351
   1487 C          -11.2965    13.0374    -0.0242 C       1      m1     0.0072
   1488 C          -11.1019    11.7303    -0.4576 C       1      m1    -0.0342
   1489 C          -10.5650    14.2935     0.6654 C       1      m1     0.0010
   1490 H          -10.0735    11.2619    -0.5731 H       1      m1     0.0227
   1491 H           -7.2991    10.5297     1.1647 H       1      m1     0.0279
   1492 C           -6.8770    14.2325     0.1063 C       1      m1     0.0292
   1493 C           -6.7337    10.3124    -1.8457 C       1      m1    -0.0244
   1494 C           -6.4792    10.6288     1.9174 C       1      m1    -0.0143
   1495 C           -6.5495    12.5504    -2.1372 C       1      m1    -0.0111
   1496 C           -6.3014    11.4804    -1.1994 C       1      m1     0.0011
   1497 C           -5.7468    13.5394     0.1716 C       1      m1     0.0044
   1498 C           -5.3914    11.4327     1.4233 C       1      m1     0.0068
   1499 C           -5.6383    12.0229     0.0218 C       1      m1    -0.0213
   1500 H           -4.6804    12.0134    -0.4895 H       1      m1     0.0211
   1501 C           -3.5080    14.3288    -0.4406 C       1      m1    -0.0059
   1502 H           -3.5717    11.3532     1.6690 H       1      m1     0.0202
   1503 C           -2.6362    13.2517     1.5998 C       1      m1     0.0016
   1504 C           -2.4540    13.9021     0.3453 C       1      m1    -0.0030
   1505 H           -2.2250    10.3385    -0.4002 H       1      m1     0.0171
   1506 C           -1.6902    10.5241    -1.3484 C       1      m1    -0.0151
   1507 C           -1.6468    12.2575     2.1347 C       1      m1    -0.0331
   1508 H           -0.8977    11.8087     1.4005 H       1      m1     0.0208
   1509 C           -0.4655    11.0428    -1.9609 C       1      m1    -0.0170
   1510 H            0.4282    11.4809    -1.7156 H       1      m1     0.0190
   1511 H            0.9887    11.8199     0.2228 H       1      m1     0.0186
   1512 C            1.4177    14.2824     0.0279 C       1      m1    -0.0128
   1513 C            1.9706    11.8675     0.7553 C       1      m1    -0.0196
   1514 C            2.2937    13.2930     0.3721 C       1      m1     0.0024
   1515 H            2.7673   -14.2195    -2.3377 H       1      m1     0.0171
   1516 C            2.8836    11.2262     1.6563 C       1      m1     0.0034
   1517 C            3.5675    14.0386     0.6508 C       1      m1    -0.0058
   1518 C            4.1720    11.9148     2.0529 C       1      m1    -0.0014
   1519 C            4.0348    10.6762    -1.7263 C       1      m1    -0.0107
   1520 C            5.1211    13.6389     0.8852 C       1      m1     0.0032
   1521 C            5.2485    12.0984     1.0617 C       1      m1     0.0039
   1522 C            6.0180    10.7084    -0.4541 C       1      m1     0.0026
   1523 C            6.3575    14.2973     0.4918 C       1      m1    -0.0086
   1524 C            6.1385    11.0728     0.7984 C       1      m1     0.0023
   1525 C            6.5655    13.6992    -2.0914 C       1      m1    -0.0012
   1526 C            7.6059   -14.4461    -1.4552 C       1      m1    -0.0025
   1527 C            7.7750    11.0191     1.2137 C       1      m1     0.0050
   1528 C            8.4452    11.8982     1.7685 C       1      m1     0.0148
   1529 H            8.7660    14.1602     2.1357 H       1      m1     0.0181
   1530 H            9.5002    11.5664    -0.0238 H       1      m1     0.0238
   1531 C            9.6319    10.5639    -0.4859 C       1      m1    -0.0396
   1532 H           11.2097    10.6955     2.0791 H       1      m1     0.0262
   1533 C           12.1098    10.9510    -1.2031 C       1      m1    -0.0300
   1534 C           12.1160    11.9280    -2.2476 C       1      m1    -0.0052
   1535 C           13.1890    12.9202    -1.9727 C       1      m1    -0.0392
   1536 C           13.3236    10.4984    -0.3502 C       1      m1    -0.0377
   1537 H           13.5357    13.6345     2.3854 H       1      m1     0.0169
   1538 C           13.4206    13.7996    -0.8149 C       1      m1     0.0283
   1539 C           14.2705    13.5213     1.6220 C       1      m1    -0.0230
   1540 C           14.5977    11.1143    -0.3000 C       1      m1    -0.0032
   1541 C           14.6407    13.5593     0.1725 C       1      m1    -0.0192
   1542 C          -14.2452   -10.9622     4.6762 C       1      m1     0.0021
   1543 C          -14.1582   -12.1763     5.5212 C       1      m1    -0.0056
   1544 C          -12.5980   -12.1368     5.8148 C       1      m1    -0.0040
   1545 C          -11.4591   -12.1172     6.0175 C       1      m1     0.0038
   1546 H          -10.3075   -12.9965     2.1281 H       1      m1     0.0730
   1547 C          -10.0060   -12.5997     6.2677 C       1      m1     0.0095
   1548 C           -8.9641   -13.3833     5.4723 C       1      m1     0.0080
   1549 C           -7.8650   -13.5755     6.5610 C       1      m1    -0.0045
   1550 C           -8.0273   -10.4587     5.7338 C       1      m1     0.0329
   1551 O           -7.2892   -13.4180     2.7651 O       1      m1    -0.4627
   1552 C           -6.9847   -13.6181     3.9692 C       1      m1     0.3150
   1553 C           -7.0659   -11.1404     5.0825 C       1      m1     0.0346
   1554 C           -6.7175   -13.6833     5.5055 C       1      m1    -0.0749
   1555 C           -5.7824   -11.7783     4.7203 C       1      m1    -0.0237
   1556 C           -5.4464   -12.9568     5.6646 C       1      m1     0.0024
   1557 H           -5.1456   -11.3583     3.9918 H       1      m1     0.0306
   1558 H           -4.8548   -14.1031     3.3166 H       1      m1     0.0339
   1559 C           -4.2406   -13.5707     2.4855 C       1      m1    -0.0141
   1560 C           -4.0235   -12.0462     2.4832 C       1      m1    -0.0153
   1561 H           -3.5908    14.2690     7.3686 H       1      m1     0.0188
   1562 H           -3.4486   -11.5177     3.2760 H       1      m1     0.0086
   1563 H           -2.4426   -12.5147     4.9940 H       1      m1     0.0143
   1564 C           -2.3907   -14.1643     3.5531 C       1      m1    -0.0042
   1565 H           -2.0782   -11.2344     2.3972 H       1      m1     0.0136
   1566 C           -1.8304   -13.3823     4.5901 C       1      m1    -0.0189
   1567 C            1.8813   -11.1876     3.1317 C       1      m1    -0.0172
   1568 H            2.4180   -11.3847     5.3668 H       1      m1     0.0233
   1569 C            2.2234   -11.8478     4.3927 C       1      m1    -0.0154
   1570 C            2.8565   -13.0387     3.9148 C       1      m1    -0.0151
   1571 C            3.3130   -12.9027     2.4642 C       1      m1    -0.0040
   1572 H            3.4080   -13.4986     4.7240 H       1      m1     0.0313
   1573 C            4.1196   -10.6400     5.8750 C       1      m1    -0.0369
   1574 H            4.7181   -10.7969     4.9441 H       1      m1     0.0113
   1575 H            5.2130   -11.9589     2.4049 H       1      m1     0.0231
   1576 H            7.1933   -11.9853     2.6263 H       1      m1     0.0119
   1577 C            7.1725   -14.0579     3.4749 C       1      m1    -0.0602
   1578 C            7.3232   -12.7030     3.5446 C       1      m1    -0.0208
   1579 C            8.3495   -12.0906     4.2188 C       1      m1    -0.0225
   1580 C            8.2722   -14.0252     5.5405 C       1      m1    -0.0025
   1581 H            8.6653   -11.2136     6.7231 H       1      m1     0.0342
   1582 C            8.8462   -12.7973     5.3890 C       1      m1    -0.0135
   1583 H            8.6994   -10.9625     4.2729 H       1      m1     0.0152
   1584 H            9.6242   -12.4591     6.0206 H       1      m1     0.0243
   1585 H           10.4322   -14.2478     2.2762 H       1      m1     0.0177
   1586 C           10.6799   -10.6679     3.1298 C       1      m1     0.0028
   1587 C           11.8065   -11.6855     3.7692 C       1      m1    -0.0067
   1588 C           11.9737   -11.3254     5.2623 C       1      m1    -0.0039
   1589 C           12.7209   -11.6910     2.7098 C       1      m1    -0.0057
   1590 C          -14.9348   -10.7485     3.2046 C       1      m1     0.0007
   1591 C          -14.8249    -9.4474     2.7229 C       1      m1    -0.0214
   1592 C          -13.8020    -9.6225     5.3675 C       1      m1    -0.0039
   1593 H          -13.8178    -9.2372     2.7638 H       1      m1     0.0229
   1594 C          -13.5769    -6.2292     5.4668 C       1      m1    -0.0057
   1595 C          -13.2262   -10.0291     6.7136 C       1      m1    -0.0208
   1596 C          -13.1770    -8.5831     4.4226 C       1      m1     0.0082
   1597 C          -12.6317    -7.3622     5.1455 C       1      m1    -0.0513
   1598 H          -12.2358    -9.9406     3.0033 H       1      m1     0.0541
   1599 C          -11.9827    -9.0627     3.6632 C       1      m1    -0.0897
   1600 C          -11.2532    -7.4880     5.7015 C       1      m1     0.2238
   1601 C          -10.6217    -9.3532     4.0526 C       1      m1     0.2922
   1602 C          -10.3408    -8.3787     5.2138 C       1      m1    -0.0950
   1603 O           -9.7641   -10.0781     3.3105 O       1      m1    -0.4212
   1604 C           -9.3292    -8.3213     6.3131 C       1      m1    -0.0032
   1605 H           -9.6187    -6.1262     4.6626 H       1      m1     0.0347
   1606 C           -8.4589    -9.2878     6.3372 C       1      m1    -0.0086
   1607 C           -7.7804    -6.4389     3.3081 C       1      m1     0.0208
   1608 H           -7.8759    -6.5689     5.3343 H       1      m1     0.0474
   1609 C           -6.6534    -7.3908     3.2643 C       1      m1     0.0024
   1610 H           -5.1109    -6.9076     4.9933 H       1      m1     0.0630
   1611 H           -5.2187    -9.0330     2.1483 H       1      m1     0.0123
   1612 C           -5.2644    -7.0562     3.8496 C       1      m1    -0.0276
   1613 H           -4.8295    -8.1102     3.5979 H       1      m1     0.0171
   1614 C           -3.9932    -6.2685     3.3759 C       1      m1    -0.0156
   1615 H           -3.5105    -8.7418     4.4167 H       1      m1    -0.0152
   1616 C           -2.9900    -8.5968     5.2664 C       1      m1     0.1703
   1617 O           -2.6928    -6.9972     5.4795 O       1      m1    -0.4844
   1618 C           -2.4607    -9.2880     6.3283 C       1      m1    -0.0195
   1619 H            0.5564    -7.0637     3.1273 H       1      m1     0.0262
   1620 C            0.6709    -7.4328     2.1321 C       1      m1    -0.0230
   1621 H            1.4997   -10.1899     2.9864 H       1      m1     0.0211
   1622 C            3.6849    -6.8149     6.2481 C       1      m1     0.0120
   1623 C            3.6613    -8.2050     6.3069 C       1      m1    -0.0107
   1624 C            3.8276    -9.4070     6.3805 C       1      m1     0.0038
   1625 C            6.7284    -8.1710     5.7141 C       1      m1     0.1337
   1626 H            7.0182    -9.0254     2.3682 H       1      m1     0.0097
   1627 C            7.0585    -8.1805     3.1401 C       1      m1    -0.0129
   1628 C            6.9529    -7.7578     4.4492 C       1      m1    -0.0176
   1629 H            9.3067    -8.4477     2.0727 H       1      m1     0.0149
   1630 C           10.0678    -8.2375     2.7616 C       1      m1    -0.0222
   1631 C           10.3107    -6.7296     3.1767 C       1      m1     0.0085
   1632 C           10.7700    -9.2692     3.6171 C       1      m1     0.0009
   1633 C           10.9772    -8.9818     5.0319 C       1      m1    -0.0230
   1634 H           10.7937    -8.0405     5.4874 H       1      m1     0.0264
   1635 C           11.5271   -10.1381     5.4065 C       1      m1    -0.0014
   1636 C           11.9042    -6.3242     3.2205 C       1      m1    -0.0089
   1637 H           12.6818    -8.0580     4.3470 H       1      m1     0.0267
   1638 C           12.9038    -7.1082     4.0567 C       1      m1    -0.0395
   1639 C           14.0008    -6.4967     5.0643 C       1      m1    -0.0003
   1640 H           13.3641    -7.1738     2.9487 H       1      m1     0.0221
   1641 H          -14.7706    -4.6189     4.3702 H       1      m1     0.0133
   1642 C          -14.6989    -5.7948     4.6590 C       1      m1    -0.0276
   1643 C          -14.1564    -2.8559     4.7450 C       1      m1    -0.0896
   1644 C          -12.9073    -5.2156     6.1864 C       1      m1     0.0411
   1645 H          -11.6327    -3.3353     5.1498 H       1      m1     0.0333
   1646 C          -10.7902    -4.5995     2.6050 C       1      m1     0.0056
   1647 C          -10.3814    -3.3781     5.5160 C       1      m1     0.0048
   1648 C          -10.0976    -4.4745     3.6200 C       1      m1     0.0490
   1649 C           -9.5102    -4.1712     4.7091 C       1      m1     0.0081
   1650 C           -8.4753    -6.0124     4.7010 C       1      m1    -0.0204
   1651 C           -8.1371    -4.4139     5.0428 C       1      m1    -0.0120
   1652 O           -8.0628    -3.6348     2.3667 O       1      m1    -0.5045
   1653 C           -7.9965    -4.1940     6.2831 C       1      m1     0.2269
   1654 C           -6.7800    -4.0340     4.6903 C       1      m1    -0.0591
   1655 C           -6.7817    -3.9042     3.3633 C       1      m1     0.1422
   1656 C           -5.8750    -3.9963     5.7713 C       1      m1     0.2091
   1657 C           -5.5821    -3.5712     2.7344 C       1      m1     0.2105
   1658 C           -4.8109    -3.3705     5.0821 C       1      m1     0.1533
   1659 C           -4.5108    -2.4230     6.0518 C       1      m1    -0.0508
   1660 O           -4.3294    -3.2458     3.5651 O       1      m1    -0.4711
   1661 C           -2.7402    -6.0695     4.2570 C       1      m1     0.2252
   1662 C           -1.9754    -4.9316     4.2374 C       1      m1    -0.0031
   1663 H           -1.5758    -4.4359     6.1589 H       1      m1     0.0432
   1664 C           -1.4348    -3.2404     2.8564 C       1      m1     0.0401
   1665 C           -0.8508    -3.9331     3.9904 C       1      m1     0.0033
   1666 C           -0.2852    -2.4305     2.6370 C       1      m1    -0.0177
   1667 C            0.2851    -3.6993     4.9279 C       1      m1    -0.0040
   1668 C            1.3573    -4.1626     5.7948 C       1      m1    -0.0072
   1669 C            2.4692    -4.9600     6.1619 C       1      m1    -0.0052
   1670 H            2.8801    -6.4298     4.5184 H       1      m1     0.0224
   1671 C            3.4395    -5.8427     5.2081 C       1      m1    -0.0347
   1672 H            4.2034    -4.5700     2.6786 H       1      m1     0.0143
   1673 H            4.1496    -4.4139     6.0777 H       1      m1     0.0362
   1674 C            4.7360    -4.7976     5.0074 C       1      m1     0.0537
   1675 C            4.8976    -4.3343     3.6348 C       1      m1    -0.0172
   1676 H            5.5984    -1.9272     6.0204 H       1      m1     0.0673
   1677 C            6.0826    -4.9809     3.2047 C       1      m1     0.0207
   1678 O            6.8586    -3.7625     6.3532 O       1      m1    -0.4780
   1679 C            7.3384    -5.4903     2.9286 C       1      m1     0.0097
   1680 C            7.9878    -2.5755     3.2189 C       1      m1    -0.0040
   1681 C            8.5648    -3.5522     3.9276 C       1      m1     0.0287
   1682 C            8.3144    -3.1300     6.2833 C       1      m1     0.2176
   1683 C            8.5942    -4.8130     3.3870 C       1      m1     0.0023
   1684 C            9.1466    -3.3176     5.3113 C       1      m1    -0.0661
   1685 C            9.7878    -5.6533     3.6721 C       1      m1    -0.0196
   1686 H           10.0424    -4.9177     4.5014 H       1      m1     0.0202
   1687 H            9.9554    -5.5451     5.9603 H       1      m1     0.0337
   1688 H           10.2274    -3.7264     3.3445 H       1      m1     0.0148
   1689 C           10.7013    -3.3966     4.9861 C       1      m1    -0.0064
   1690 C           11.1035    -3.0871     3.6921 C       1      m1    -0.0138
   1691 C           11.4940    -2.4556     5.6626 C       1      m1    -0.0478
   1692 C           12.3629    -3.6101     3.1042 C       1      m1     0.0228
   1693 H           12.8441    -4.6812     5.0440 H       1      m1     0.0124
   1694 C           13.1238    -4.8506     6.1602 C       1      m1     0.0106
   1695 C           13.7053    -3.3750     3.4776 C       1      m1    -0.0336
   1696 C           13.7957    -6.0665     6.4886 C       1      m1    -0.0348
   1697 C           14.9633    -2.7971     3.7698 C       1      m1     0.2078
   1698 O          -14.7442     1.4649     4.6487 O       1      m1    -0.3991
   1699 O          -14.2449    -1.5882     2.9297 O       1      m1    -0.4132
   1700 C          -13.2418    -2.1169     5.0893 C       1      m1     0.2421
   1701 C          -13.0270    -1.1903     4.0244 C       1      m1     0.1365
   1702 O          -12.7521    -1.9101     6.5379 O       1      m1    -0.4968
   1703 C          -12.2942     0.7110     2.3488 C       1      m1    -0.0104
   1704 C          -12.1669    -0.2368     3.5152 C       1      m1     0.0310
   1705 C          -12.0826     2.1270     3.1344 C       1      m1     0.0223
   1706 C          -10.7234    -0.0439     4.1720 C       1      m1    -0.0251
   1707 H          -10.3671     1.0224     3.9909 H       1      m1     0.0181
   1708 C          -10.2535    -0.7488     4.9965 C       1      m1     0.0249
   1709 C           -9.8785    -1.6239     5.7311 C       1      m1    -0.0192
   1710 H           -9.9481     1.6100     2.3541 H       1      m1     0.0198
   1711 H           -9.9010    -1.7139     6.7833 H       1      m1     0.0429
   1712 H           -8.3099     0.2829     3.2965 H       1      m1     0.0281
   1713 C           -7.7305     2.0067     3.6345 C       1      m1    -0.0040
   1714 C           -7.5612     0.6754     3.9595 C       1      m1    -0.0230
   1715 H           -6.3855    -0.6088     5.4134 H       1      m1     0.0202
   1716 C           -6.2793     0.1758     4.5872 C       1      m1    -0.0083
   1717 C           -4.9644     0.3511     3.9074 C       1      m1    -0.0165
   1718 H           -5.0703     0.8900     3.1066 H       1      m1     0.0196
   1719 C           -3.8698    -0.3688     4.2949 C       1      m1     0.0060
   1720 C           -3.7158    -1.1911     5.5232 C       1      m1     0.0318
   1721 H           -2.9575    -0.2606     3.7031 H       1      m1     0.0271
   1722 C           -1.2639     1.3813     2.3357 C       1      m1    -0.0008
   1723 H           -1.2338    -0.8444     2.7315 H       1      m1     0.0272
   1724 C           -0.3762     1.6846     3.4604 C       1      m1    -0.0018
   1725 C           -0.5065    -0.8183     6.5702 C       1      m1    -0.0180
   1726 C           -0.1013     0.5972     4.5095 C       1      m1     0.0023
   1727 C            0.3249    -0.2095     5.4541 C       1      m1    -0.0163
   1728 H            1.3422    -0.5739     5.7820 H       1      m1     0.0138
   1729 C            2.1749    -0.9296     3.8112 C       1      m1    -0.0089
   1730 C            2.1645    -1.0213     2.5817 C       1      m1    -0.0052
   1731 H            2.9086    -0.7643     6.3441 H       1      m1     0.0173
   1732 C            4.3218     0.7189     6.4991 C       1      m1     0.0040
   1733 H            6.2588     1.7155     4.2857 H       1      m1     0.0269
   1734 C            5.7424     0.6186     6.4595 C       1      m1    -0.0011
   1735 H            6.6559     0.1965     3.0809 H       1      m1     0.0359
   1736 C            6.4724     1.1021     5.1840 C       1      m1    -0.0139
   1737 C            6.6573    -0.2349     4.0770 C       1      m1    -0.0205
   1738 C            7.1881    -1.3984     4.1134 C       1      m1     0.0184
   1739 C            7.9844     1.3680     5.3896 C       1      m1     0.0037
   1740 C            9.0908     0.3448     5.6214 C       1      m1     0.0091
   1741 H            9.6428    -1.4486     4.1302 H       1      m1     0.0294
   1742 C            9.7349    -0.7303     5.1383 C       1      m1    -0.0215
   1743 C           10.7868    -1.2200     5.9456 C       1      m1    -0.0000
   1744 C           11.8315     1.2563     3.5800 C       1      m1    -0.0411
   1745 H           11.9037    -1.0537     4.4132 H       1      m1     0.0496
   1746 C           12.1461     0.9867     2.3319 C       1      m1     0.2582
   1747 C           12.2574     0.3507     6.1274 C       1      m1    -0.0431
   1748 C           12.4003     0.0775     4.6597 C       1      m1    -0.0001
   1749 C           14.0432     0.3049     4.7480 C       1      m1     0.1889
   1750 C           14.3996     0.9182     5.9079 C       1      m1     0.1152
   1751 H           14.9331     4.4511     3.6877 H       1      m1     0.0313
   1752 C          -14.6379     4.7301     2.6820 C       1      m1    -0.0375
   1753 C          -13.1524     4.6593     2.4860 C       1      m1     0.0045
   1754 H          -12.2797     2.9779     6.1727 H       1      m1     0.0396
   1755 C          -12.2498     4.3576     3.5558 C       1      m1     0.0023
   1756 C          -11.6351     3.0518     3.8035 C       1      m1     0.0030
   1757 C          -11.5740     5.2328     4.6359 C       1      m1    -0.0065
   1758 C          -11.2822     2.6687     6.3403 C       1      m1    -0.0209
   1759 C          -10.5630     3.0562     5.1645 C       1      m1    -0.0133
   1760 C          -10.3793     4.6138     5.0677 C       1      m1    -0.0057
   1761 H           -9.6132     2.7551     4.8791 H       1      m1     0.0221
   1762 C           -9.3989     5.4188     5.8205 C       1      m1     0.0087
   1763 C           -8.9527     2.2142     2.5186 C       1      m1    -0.0259
   1764 H           -8.6403     4.4219     4.3631 H       1      m1     0.0197
   1765 C           -8.0754     5.7165     6.0361 C       1      m1     0.0082
   1766 C           -7.4484     4.0749     4.3441 C       1      m1    -0.0120
   1767 C           -6.9086     4.9027     5.3696 C       1      m1    -0.0006
   1768 C           -6.6913     3.0047     3.7107 C       1      m1    -0.0228
   1769 H           -5.7586     2.4216     3.7570 H       1      m1     0.0193
   1770 C           -5.4806     4.8108     5.5456 C       1      m1    -0.0077
   1771 H           -5.2239     5.4277     6.3056 H       1      m1     0.0312
   1772 C           -4.4650     4.4282     4.5284 C       1      m1     0.0079
   1773 C           -3.3075     4.7767     5.5452 C       1      m1    -0.0701
   1774 C           -3.0276     4.6089     4.2004 C       1      m1     0.0162
   1775 C           -2.7727     5.4162     6.6986 C       1      m1     0.3504
   1776 C           -2.4824     4.6555     2.7819 C       1      m1    -0.0286
   1777 C           -1.4179     5.4105     2.4201 C       1      m1     0.0056
   1778 C           -0.4002     6.0948     2.2898 C       1      m1    -0.0226
   1779 C            0.0302     4.1723     4.5010 C       1      m1    -0.0011
   1780 C           -0.0403     5.5596     4.6151 C       1      m1     0.0009
   1781 C            0.2114     4.0976     6.0203 C       1      m1     0.0013
   1782 C            0.2322     3.0500     3.5036 C       1      m1    -0.0038
   1783 C            0.5925     5.7422     5.9823 C       1      m1     0.0328
   1784 C            1.5684     3.2930     3.0503 C       1      m1    -0.0002
   1785 H            2.4085     4.2604     4.6753 H       1      m1     0.0167
   1786 C            2.6599     3.8795     3.7000 C       1      m1    -0.0226
   1787 H            3.4288     4.8176     6.1512 H       1      m1     0.0133
   1788 C            3.8665     4.2203     2.9325 C       1      m1    -0.0152
   1789 H            4.0844     2.6589     5.1351 H       1      m1     0.0206
   1790 C            3.8183     2.1620     6.0439 C       1      m1    -0.0282
   1791 H            4.6596     4.7886     3.5058 H       1      m1     0.0137
   1792 H            5.7453     5.5370     4.1871 H       1      m1     0.0119
   1793 C            6.3280     4.3203     2.1142 C       1      m1    -0.0024
   1794 H            6.7440     4.1257     5.9748 H       1      m1     0.0199
   1795 C            6.7812     6.2405     4.5131 C       1      m1    -0.0084
   1796 C            7.3129     4.1482     2.9449 C       1      m1     0.0141
   1797 C            7.8084     3.7773     5.3439 C       1      m1    -0.0155
   1798 C            7.8648     4.9312     4.2503 C       1      m1    -0.0201
   1799 C            8.5277     2.5619     4.9727 C       1      m1     0.0154
   1800 H            8.9394     5.2119     4.5922 H       1      m1     0.0162
   1801 H            9.6069     4.5993     2.2900 H       1      m1     0.0215
   1802 C           10.1170     2.7094     5.2067 C       1      m1    -0.0099
   1803 H           10.5834     5.7265     3.0778 H       1      m1     0.0138
   1804 C           10.4813     3.1021     6.6260 C       1      m1    -0.0038
   1805 H           11.1404     3.6779     2.6567 H       1      m1     0.0192
   1806 C           11.0151     2.1421     4.3187 C       1      m1     0.0201
   1807 H           11.8358     5.0269     5.0513 H       1      m1     0.0152
   1808 C           12.3484     4.5820     5.7506 C       1      m1    -0.0299
   1809 C           13.5907     4.8442     5.6184 C       1      m1    -0.0168
   1810 H           14.5730     5.2579     5.2500 H       1      m1     0.0092
   1811 H           14.8404     5.6952     2.4339 H       1      m1     0.0181
   1812 C          -12.4604     7.0591     2.9214 C       1      m1     0.0309
   1813 C          -11.8489     7.6805     3.9631 C       1      m1    -0.0108
   1814 H          -12.0454     8.8797     3.9654 H       1      m1     0.0259
   1815 C          -11.2857     6.5725     4.7207 C       1      m1    -0.0014
   1816 H          -10.6815     8.9048     5.8091 H       1      m1     0.0144
   1817 C          -10.4460     6.5703     6.0121 C       1      m1     0.0031
   1818 C          -10.1041     7.9906     6.3137 C       1      m1    -0.0130
   1819 C           -9.6156    10.0853     3.7607 C       1      m1    -0.0207
   1820 H           -9.8969     9.3801     4.4787 H       1      m1     0.0225
   1821 C           -8.3586     8.0582     5.8567 C       1      m1    -0.0200
   1822 H           -8.4699     8.1270     4.7476 H       1      m1     0.0227
   1823 C           -7.6195     7.0221     6.5997 C       1      m1    -0.0062
   1824 C           -7.5338     9.0192     6.1976 C       1      m1    -0.0051
   1825 C           -6.5335     9.2136     5.2087 C       1      m1    -0.0065
   1826 C           -6.2650    10.2594     4.4614 C       1      m1    -0.0025
   1827 C           -5.4674     8.1586     5.3506 C       1      m1    -0.0243
   1828 H           -5.4473     7.4747     6.1480 H       1      m1     0.0254
   1829 C           -4.5810     7.9660     4.2837 C       1      m1    -0.0018
   1830 C           -3.9568     7.8075     3.2324 C       1      m1    -0.0241
   1831 C           -2.5228     7.9224     3.6367 C       1      m1    -0.0158
   1832 C           -1.8599     8.9316     3.2319 C       1      m1     0.0026
   1833 H           -2.8122     7.6136     4.6465 H       1      m1     0.0295
   1834 C           -1.0889    10.0063     2.8795 C       1      m1    -0.0045
   1835 C           -0.7412     9.6965     6.6261 C       1      m1    -0.0552
   1836 C            0.1867     6.3188     3.5821 C       1      m1     0.0075
   1837 C            0.3076     9.8953     2.5383 C       1      m1    -0.0017
   1838 C            0.5236    10.0387     5.8980 C       1      m1     0.0009
   1839 C            1.4849     9.5538     4.7983 C       1      m1    -0.0049
   1840 C            1.4533     6.8092     3.5606 C       1      m1    -0.0057
   1841 C            1.5316     9.6054     3.2850 C       1      m1     0.0016
   1842 C            2.5305     9.0089     5.2867 C       1      m1    -0.0002
   1843 C            2.5796     7.0527     3.5511 C       1      m1    -0.0042
   1844 C            3.1661     8.2154     6.1452 C       1      m1    -0.0067
   1845 C            2.8230     9.9319     2.5443 C       1      m1    -0.0016
   1846 C            3.9010     7.5894     3.2320 C       1      m1    -0.0143
   1847 C            4.5125     7.7394     5.8215 C       1      m1    -0.0152
   1848 H            4.2272     6.5228     2.8354 H       1      m1     0.0167
   1849 H            4.2108     6.6253     6.1827 H       1      m1     0.0131
   1850 C            5.0122     8.1949     4.3337 C       1      m1    -0.0136
   1851 H            5.4896     9.2534     4.0806 H       1      m1     0.0232
   1852 C            6.2460     7.4737     3.9441 C       1      m1    -0.0026
   1853 C            7.1332     8.1916     6.8070 C       1      m1    -0.0099
   1854 C            7.3493     8.3471     3.0818 C       1      m1    -0.0060
   1855 C            7.3426     7.0548     5.7671 C       1      m1    -0.0241
   1856 C            8.4737     8.3900     3.5005 C       1      m1     0.0124
   1857 H            9.9387     7.9684     5.0857 H       1      m1     0.0148
   1858 C            9.7065     8.1212     4.0434 C       1      m1    -0.0209
   1859 C           10.8703     7.8711     3.1326 C       1      m1    -0.0062
   1860 C           11.2662     6.5938     2.8692 C       1      m1    -0.0245
   1861 H           11.3964     8.6762     2.6329 H       1      m1     0.0369
   1862 C           12.2455     8.7549     6.0892 C       1      m1    -0.0508
   1863 H           12.0229     8.2451     5.2445 H       1      m1     0.0204
   1864 C           12.4092    10.0550     5.8278 C       1      m1     0.0023
   1865 C           13.4609     7.5866     2.4250 C       1      m1    -0.0130
   1866 H           14.3281     7.2369     2.9713 H       1      m1     0.0127
   1867 C          -14.4560    13.3388     3.8222 C       1      m1    -0.0081
   1868 H          -13.3685    10.4831     4.5838 H       1      m1     0.0170
   1869 C          -13.1602    12.6955     4.1672 C       1      m1    -0.0046
   1870 C          -12.9394    11.4953     4.9158 C       1      m1    -0.0185
   1871 C          -12.4113    11.5004     6.2255 C       1      m1    -0.0224
   1872 H          -12.5708    12.6310     6.5063 H       1      m1     0.0176
   1873 C          -12.0023    14.2264     2.5810 C       1      m1     0.0020
   1874 C          -12.1503    13.7562     3.9430 C       1      m1    -0.0001
   1875 H          -10.9098    13.8431     5.8142 H       1      m1     0.0148
   1876 C          -10.9007    13.6503     4.7709 C       1      m1    -0.0224
   1877 H          -10.4657    10.7793     3.5593 H       1      m1     0.0276
   1878 C           -9.7219   -14.3220     4.5594 C       1      m1     0.0064
   1879 H           -8.6698    14.2131     4.2845 H       1      m1     0.0336
   1880 C           -8.3680    10.3945     3.2201 C       1      m1     0.0093
   1881 C           -6.8893    10.4613     3.2397 C       1      m1     0.0029
   1882 C           -5.2463    11.2156     4.7170 C       1      m1    -0.0222
   1883 H           -4.9781    11.2597     5.7664 H       1      m1     0.0170
   1884 C           -4.3849    11.3834     2.4894 C       1      m1    -0.0163
   1885 C           -4.2056    11.0019     3.8143 C       1      m1     0.0055
   1886 C           -3.0739    14.3555     2.6435 C       1      m1    -0.0078
   1887 C           -2.7501    10.9619     4.5055 C       1      m1    -0.0087
   1888 C           -2.7703    10.4634     5.7417 C       1      m1     0.0178
   1889 C           -1.5074    11.3992     3.6657 C       1      m1    -0.0176
   1890 H           -1.3603    13.0214     2.9202 H       1      m1     0.0239
   1891 C           -1.0001   -14.4242     5.1318 C       1      m1    -0.0015
   1892 H           -0.6909    11.6637     4.3069 H       1      m1     0.0190
   1893 C           -0.1622    13.5929     5.8545 C       1      m1    -0.0233
   1894 H            0.6191    12.8461     3.3123 H       1      m1     0.0185
   1895 H            0.6705    10.9409     6.3922 H       1      m1     0.0179
   1896 C            1.0927    12.9009     5.6160 C       1      m1    -0.0017
   1897 C            1.3752    12.5890     4.1729 C       1      m1    -0.0198
   1898 C            2.1491    12.6918     6.4400 C       1      m1     0.0011
   1899 C            2.7032    12.1380     4.2156 C       1      m1     0.0002
   1900 C            3.1991    12.1736     5.5835 C       1      m1     0.0035
   1901 C            4.0651    11.9939     3.4697 C       1      m1     0.0151
   1902 C            4.4362    11.6056     5.8906 C       1      m1     0.0284
   1903 C            4.9191    11.4387     4.4831 C       1      m1    -0.0278
   1904 H            6.0334    11.5584     4.3823 H       1      m1     0.0912
   1905 H            6.7386   -13.9752     2.4680 H       1      m1     0.0381
   1906 O            7.6908    12.9321     4.6384 O       1      m1    -0.5123
   1907 C            7.5723    14.4299     4.5745 C       1      m1     0.2568
   1908 C            8.3089    12.7904     6.0451 C       1      m1     0.2509
   1909 C            8.9028    13.9549     6.5757 C       1      m1    -0.0798
   1910 C            8.9857    13.0216     2.3006 C       1      m1     0.0262
   1911 C           10.4859    12.6695     2.7938 C       1      m1     0.0180
   1912 C           10.9891    13.9281     2.7320 C       1      m1    -0.0448
   1913 C           11.2080    11.2673     2.9844 C       1      m1    -0.0173
   1914 H           11.0162    11.4952     7.2714 H       1      m1     0.0400
   1915 H           11.9902    14.1561     3.0154 H       1      m1     0.0216
   1916 H           12.5038    13.9761     6.0363 H       1      m1     0.0116
   1917 C           12.5215    11.2097     3.6301 C       1      m1    -0.0090
   1918 C           12.8248    11.0574     5.1279 C       1      m1    -0.0043
   1919 C           13.9678    12.1186     5.4390 C       1      m1    -0.0093
   1920 C           14.5905    12.9914     4.6741 C       1      m1    -0.0087
   1921 C          -14.4991   -12.4805     8.8075 C       1      m1    -0.0036
   1922 C          -14.0022   -10.5887     7.8388 C       1      m1    -0.0015
   1923 H          -13.8175   -13.4608    10.6704 H       1      m1     0.0225
   1924 C          -13.4884   -11.8362     8.5616 C       1      m1    -0.0230
   1925 C          -12.8874   -13.9008    10.3384 C       1      m1    -0.0250
   1926 H          -12.4229   -12.1005     8.4549 H       1      m1     0.0167
   1927 C           -9.5791   -11.9605     7.2167 C       1      m1    -0.0057
   1928 C           -9.2522   -10.7206     9.1444 C       1      m1     0.0240
   1929 C           -8.7767   -11.8608     8.1974 C       1      m1    -0.0145
   1930 H           -8.9770   -14.2101     9.3493 H       1      m1     0.0174
   1931 C           -7.5375   -12.5881     7.7276 C       1      m1    -0.0038
   1932 H           -6.8614   -14.3281     9.7215 H       1      m1     0.0174
   1933 C           -6.1748   -12.5906     8.1248 C       1      m1    -0.0123
   1934 C           -6.1907   -11.8162    10.7433 C       1      m1    -0.0375
   1935 C           -5.7731   -11.8734     9.4517 C       1      m1    -0.0009
   1936 C           -5.3178   -12.8341     7.0431 C       1      m1     0.0030
   1937 C           -4.4884   -10.9281     9.6465 C       1      m1    -0.0013
   1938 C           -4.0286   -13.8225     8.9841 C       1      m1    -0.0050
   1939 C           -3.9805   -13.5467     7.4890 C       1      m1    -0.0332
   1940 C           -3.7973   -11.6543    10.6428 C       1      m1    -0.0168
   1941 C           -3.3322   -13.0711    10.0813 C       1      m1    -0.0043
   1942 H           -3.2974   -12.6781     7.7615 H       1      m1     0.0174
   1943 H           -2.2941   -10.9437     7.2186 H       1      m1     0.0134
   1944 C           -2.2880   -13.6233    11.1125 C       1      m1    -0.0030
   1945 H           -0.3568   -12.6985     7.4797 H       1      m1     0.0182
   1946 H            0.1523    14.3899     7.7928 H       1      m1     0.0138
   1947 C            0.0331   -10.3806    10.5639 C       1      m1    -0.0153
   1948 C            0.6168   -12.7366     7.5893 C       1      m1    -0.0243
   1949 H            0.6354   -12.6856    10.8315 H       1      m1     0.0156
   1950 C            1.0559   -14.0865     7.6127 C       1      m1    -0.0137
   1951 H            1.5558   -10.4719     7.4692 H       1      m1     0.0155
   1952 C            1.5657   -11.6457     7.3363 C       1      m1    -0.0101
   1953 C            2.8845   -12.2256     7.3978 C       1      m1    -0.0317
   1954 C            3.5702   -13.6625     7.7566 C       1      m1     0.2206
   1955 C            4.0758   -11.3276     7.1105 C       1      m1    -0.0159
   1956 O            5.0751   -13.6529     7.6215 O       1      m1    -0.4282
   1957 C            5.1451   -10.3866    10.9050 C       1      m1    -0.0183
   1958 H            4.9338   -11.4311    10.3462 H       1      m1     0.0434
   1959 C            5.3211   -12.2551     6.8850 C       1      m1     0.1999
   1960 C            6.4579   -11.6200     6.8025 C       1      m1    -0.0186
   1961 C            7.6516   -10.7935     6.8759 C       1      m1    -0.0556
   1962 C            7.8849   -13.4190     9.9964 C       1      m1     0.3120
   1963 C            7.7012   -12.6041    10.6668 C       1      m1    -0.1136
   1964 O            7.9374    14.4626     8.9306 O       1      m1    -0.4638
   1965 H           12.3582   -12.6001     9.5141 H       1      m1     0.0237
   1966 C           12.3344   -11.5424     6.7354 C       1      m1    -0.0091
   1967 H           12.4656   -13.7375     8.1626 H       1      m1     0.0417
   1968 C           12.6803   -11.5326     8.0411 C       1      m1     0.0080
   1969 C           12.8540   -12.9166     8.5764 C       1      m1    -0.0431
   1970 C           13.8648   -13.6997    10.6234 C       1      m1     0.0129
   1971 C           14.3477   -13.0951     9.2653 C       1      m1    -0.0059
   1972 C           14.9279    -8.9586     9.0481 C       1      m1    -0.0048
   1973 H          -14.2021    -6.6403     8.1021 H       1      m1     0.0151
   1974 C          -14.0030    -7.4727    11.1326 C       1      m1    -0.0092
   1975 C          -12.9651    -6.6408    10.7745 C       1      m1     0.0228
   1976 H          -12.1601    -9.8813     6.6989 H       1      m1     0.0207
   1977 H          -11.3031    -8.3161     9.6387 H       1      m1    -0.0062
   1978 C          -10.7777    -9.0202    10.3410 C       1      m1     0.2761
   1979 O          -10.6662    -6.7795     6.9570 O       1      m1    -0.5240
   1980 C           -9.9667    -9.8993     9.6786 C       1      m1    -0.0649
   1981 C           -9.4381    -7.4768     7.3495 C       1      m1     0.2440
   1982 C           -8.1416    -7.4559     7.9383 C       1      m1    -0.0484
   1983 C           -7.9015    -6.7818     9.0947 C       1      m1     0.0352
   1984 C           -7.3644    -8.5214     7.0436 C       1      m1     0.0035
   1985 C           -6.1480    -8.8945     7.3741 C       1      m1     0.0075
   1986 H           -5.9283    -7.7948    10.0397 H       1      m1     0.0818
   1987 C           -4.8918    -8.3411    10.3544 C       1      m1    -0.0226
   1988 C           -4.6971    -9.4426     9.2519 C       1      m1    -0.0012
   1989 C           -4.9652    -9.2303     7.7922 C       1      m1    -0.0364
   1990 H           -4.3949    -8.4213     7.5345 H       1      m1     0.0378
   1991 H           -3.6396    -7.1963     8.3389 H       1      m1     0.0424
   1992 H           -2.8600    -8.4015     9.8187 H       1      m1     0.0290
   1993 C           -2.7101    -7.3380     9.8436 C       1      m1    -0.0080
   1994 C           -2.1635    -9.9574     7.4926 C       1      m1    -0.0117
   1995 H           -1.3442    -6.9553     7.9141 H       1      m1     0.0397
   1996 C           -1.5050    -6.5683    10.4509 C       1      m1    -0.0068
   1997 C           -1.1308    -9.3452     8.5044 C       1      m1     0.0065
   1998 C           -0.7560    -7.8326     8.2715 C       1      m1    -0.0028
   1999 H           -0.8138    -6.0009     9.9251 H       1      m1     0.0164
   2000 C           -0.5930    -9.9124     9.4444 C       1      m1    -0.0040
   2001 C            0.4667    -7.4691     8.1109 C       1      m1    -0.0407
   2002 H            0.2715    -6.4499     7.7634 H       1      m1     0.0231
   2003 H            1.4331    -8.0351     8.3114 H       1      m1     0.0182
   2004 H            2.9910    -8.5223     8.9227 H       1      m1     0.0132
   2005 C            4.0774    -8.4025     9.2171 C       1      m1    -0.0088
   2006 C            3.8494    -6.3682     7.7058 C       1      m1     0.0111
   2007 C            4.7274    -9.2966     9.9341 C       1      m1     0.0046
   2008 C            4.8182    -7.1448     8.8006 C       1      m1    -0.0452
   2009 H            5.0073    -6.3674     9.7830 H       1      m1     0.0255
   2010 H            5.6978    -7.3161     8.4744 H       1      m1     0.0930
   2011 C            7.1553    -9.4272     6.8358 C       1      m1     0.2057
   2012 O            7.2708    -8.0603     7.3028 O       1      m1    -0.4679
   2013 C            7.4987    -7.8851    10.6747 C       1      m1     0.0024
   2014 C            7.7086    -6.8553     9.7827 C       1      m1     0.0298
   2015 C            9.7462    -6.9952     8.9806 C       1      m1     0.0168
   2016 C           10.3394    -8.1604     9.9472 C       1      m1     0.0354
   2017 C           10.3784    -6.8392     7.6791 C       1      m1     0.0262
   2018 H           10.8325   -10.1633    10.1843 H       1      m1     0.0216
   2019 H           10.9915    -9.9632     8.5311 H       1      m1     0.0292
   2020 C           11.0385    -9.4411     9.4963 C       1      m1    -0.0746
   2021 H           10.8062    -7.8885     7.1500 H       1      m1     0.0253
   2022 C           12.6246    -9.1673     9.6329 C       1      m1     0.2331
   2023 O           13.2228    -7.8145    10.0093 O       1      m1    -0.4488
   2024 C           13.0696   -10.0960     8.7644 C       1      m1    -0.0656
   2025 C           14.5986    -9.9865     8.4540 C       1      m1     0.0177
   2026 C           14.9175    -7.6931     9.8414 C       1      m1     0.1368
   2027 H          -14.8998    -6.7544     9.3930 H       1      m1     0.0902
   2028 H          -14.4332    -5.4219     6.9316 H       1      m1     0.0163
   2029 H          -13.8869    -3.8123     7.8178 H       1      m1     0.1363
   2030 C          -13.0312    -4.2470     7.1924 C       1      m1    -0.0406
   2031 C          -12.2173    -3.0041     7.3581 C       1      m1     0.2430
   2032 C          -11.8603    -6.0734    10.5886 C       1      m1     0.0355
   2033 C          -11.4131    -2.4530     8.8261 C       1      m1     0.1747
   2034 C          -11.0054    -3.6250     6.8168 C       1      m1    -0.0904
   2035 C          -10.4596    -5.5937    10.6063 C       1      m1     0.0511
   2036 C          -10.0950    -3.9611     7.7795 C       1      m1     0.2677
   2037 O          -10.1471    -3.1004     9.1012 O       1      m1    -0.5150
   2038 C           -9.0988    -5.0581    10.3059 C       1      m1    -0.0008
   2039 C           -8.9780    -4.0946     7.0752 C       1      m1    -0.0658
   2040 C           -8.2219    -2.2618    11.1271 C       1      m1     0.0294
   2041 C           -8.0663    -5.8744    10.0042 C       1      m1     0.2037
   2042 O           -6.7226    -5.8491    10.8566 O       1      m1    -0.4797
   2043 O           -6.5913    -4.5325     6.8824 O       1      m1    -0.4759
   2044 H           -5.1832    -2.6024     6.9703 H       1      m1     0.0490
   2045 C           -3.0220    -6.3370     8.9112 C       1      m1    -0.0053
   2046 C           -2.6154    -3.0419    10.0586 C       1      m1    -0.0016
   2047 C           -2.6209    -5.5278     7.8109 C       1      m1     0.0567
   2048 C           -2.2098    -2.8502     8.7151 C       1      m1    -0.0023
   2049 C           -2.1509    -4.3794     7.1972 C       1      m1    -0.0038
   2050 C           -1.6851    -3.0693     7.5015 C       1      m1    -0.0078
   2051 C           -1.4683    -3.1856    11.0985 C       1      m1    -0.0081
   2052 C           -0.2445    -2.3624    11.0727 C       1      m1    -0.0055
   2053 C            0.7017    -2.3454    10.1192 C       1      m1    -0.0164
   2054 C            1.5132    -2.7860     9.3604 C       1      m1    -0.0022
   2055 C            2.6206    -3.1804     8.2102 C       1      m1    -0.0028
   2056 C            2.6046    -4.4292     7.5453 C       1      m1    -0.0031
   2057 C            3.6059    -2.0741     8.4959 C       1      m1    -0.0018
   2058 C            3.8261    -5.0919     8.1305 C       1      m1    -0.0134
   2059 H            4.2933    -4.8482     9.1639 H       1      m1     0.0366
   2060 C            4.7856    -2.5647     7.8909 C       1      m1     0.0365
   2061 C            5.8104    -2.9208    10.0383 C       1      m1    -0.0251
   2062 C            5.7590    -3.2570     8.6992 C       1      m1    -0.0247
   2063 H            6.4483    -4.9249     7.9967 H       1      m1     0.0320
   2064 C            6.9299    -4.0075     7.8871 C       1      m1     0.1843
   2065 C            8.3452    -4.5697    11.0544 C       1      m1    -0.0042
   2066 C            8.4140    -3.7298     8.4536 C       1      m1    -0.0102
   2067 C            8.5930    -6.1485     9.2375 C       1      m1     0.0181
   2068 C            8.8153    -4.6310     9.6047 C       1      m1    -0.0301
   2069 C            9.0245    -2.8210     7.4778 C       1      m1    -0.0766
   2070 H           10.0406    -2.5887     7.3599 H       1      m1     0.0457
   2071 H            9.9079    -4.2444     9.6393 H       1      m1     0.0374
   2072 H           10.2901    -4.6331     7.5479 H       1      m1     0.0287
   2073 C           10.3682    -5.5867     7.0351 C       1      m1    -0.0329
   2074 C           12.0603    -2.8004     7.0946 C       1      m1     0.1890
   2075 O           12.0711    -2.2614     8.6556 O       1      m1    -0.4864
   2076 C           12.9077    -3.9170     7.2258 C       1      m1    -0.0807
   2077 C           13.0717    -3.1562     9.2539 C       1      m1     0.2279
   2078 C           13.3581    -3.3820    10.6338 C       1      m1     0.0195
   2079 C           13.6228    -4.1590     8.3934 C       1      m1     0.2317
   2080 O           14.7719    -5.0515     8.7383 O       1      m1    -0.5129
   2081 C           14.8421    -6.0638     7.6324 C       1      m1     0.1867
   2082 O          -13.7333    -1.9042     9.2603 O       1      m1    -0.4205
   2083 C          -12.8721     1.0983     8.4468 C       1      m1     0.0490
   2084 C          -12.5779    -1.4445     9.2887 C       1      m1     0.2919
   2085 C          -12.2882    -0.0200     8.8686 C       1      m1    -0.0276
   2086 H          -11.2060     0.3367     8.8388 H       1      m1     0.0186
   2087 H           -9.5224    -0.2925     9.4453 H       1      m1     0.0334
   2088 H           -9.2423     0.9066     7.0640 H       1      m1     0.0294
   2089 C           -8.8999     0.3935     8.9352 C       1      m1     0.0121
   2090 C           -8.4335     0.6108     7.6638 C       1      m1    -0.0101
   2091 C           -7.6602    -0.1284     9.5316 C       1      m1     0.0183
   2092 C           -7.4408    -0.9834    10.7602 C       1      m1     0.0138
   2093 C           -7.1489     1.3990     7.4839 C       1      m1     0.0144
   2094 H           -6.9119    -0.3243     8.7771 H       1      m1     0.0247
   2095 H           -5.9984    -0.3109     7.5623 H       1      m1     0.0301
   2096 C           -5.9464     0.6346     7.3875 C       1      m1    -0.0883
   2097 H           -5.4028    -2.0865    10.2363 H       1      m1     0.0313
   2098 C           -4.6446    -1.3064    10.8242 C       1      m1    -0.0285
   2099 C           -4.6201     1.2234     7.3735 C       1      m1     0.2201
   2100 C           -3.5375    -2.0725    10.4084 C       1      m1    -0.0039
   2101 C           -3.6053     0.1780     7.3487 C       1      m1    -0.0325
   2102 C           -2.6943    -0.6067     6.3653 C       1      m1    -0.0011
   2103 C           -1.7945     1.3013    10.8457 C       1      m1     0.0111
   2104 C           -1.6225    -1.6248     6.6894 C       1      m1     0.0060
   2105 C           -1.3461     0.6829     9.7029 C       1      m1    -0.0166
   2106 H           -0.9671    -0.1749     9.8299 H       1      m1     0.0168
   2107 C           -0.7445     1.6636     8.7514 C       1      m1     0.0132
   2108 H            0.4402    -0.5912     7.2277 H       1      m1     0.0130
   2109 C            1.1655     1.3670    11.3489 C       1      m1    -0.0328
   2110 C            2.4421     1.4216     9.1060 C       1      m1    -0.0102
   2111 C            3.3150     0.2834     9.4671 C       1      m1    -0.0158
   2112 C            3.4969    -0.5881     8.4083 C       1      m1     0.0033
   2113 H            2.7240    -0.0886    10.2612 H       1      m1     0.0282
   2114 C            3.7440    -0.5669     6.8562 C       1      m1    -0.0240
   2115 C            4.9710     1.5273    10.9410 C       1      m1     0.0008
   2116 C            5.1006    -1.5028     6.9420 C       1      m1    -0.0165
   2117 C            5.5698    -1.5390    10.6286 C       1      m1     0.0275
   2118 C            5.9503     1.1119    10.0813 C       1      m1    -0.0002
   2119 C            6.2554    -0.5882     7.1665 C       1      m1     0.0041
   2120 C            6.2368    -0.3468     9.8508 C       1      m1    -0.0114
   2121 C            6.1928    -0.5244     8.5156 C       1      m1     0.0028
   2122 C            7.9058     1.7873     8.6808 C       1      m1    -0.0037
   2123 C            8.7334     1.5848     7.7484 C       1      m1     0.0058
   2124 C            9.5515     0.6499     6.9928 C       1      m1    -0.0188
   2125 H            9.2845    -1.5368    10.3603 H       1      m1     0.0279
   2126 C           10.8946    -0.0700     7.0343 C       1      m1     0.0289
   2127 H           10.6406    -0.3350     8.1017 H       1      m1     0.0624
   2128 H           12.1313     1.1318    10.8124 H       1      m1     0.0878
   2129 H           11.8860    -1.1073    10.8137 H       1      m1     0.0844
   2130 O           13.1757     1.8348     8.2350 O       1      m1    -0.4732
   2131 C           13.2530     0.9856     6.8649 C       1      m1     0.2048
   2132 C          -14.3968     3.0432     8.3113 C       1      m1    -0.0550
   2133 C          -14.5209     4.3532     9.2270 C       1      m1    -0.0081
   2134 C          -13.8624     3.7247    10.6303 C       1      m1     0.0001
   2135 C          -13.5615     2.0194     8.4006 C       1      m1     0.0335
   2136 C          -13.4507     5.0970     8.5078 C       1      m1    -0.0574
   2137 H          -13.6313     6.1499     8.6020 H       1      m1     0.0251
   2138 H          -13.4531     4.8647     7.3623 H       1      m1     0.0199
   2139 H          -12.7749     4.7613     9.1958 H       1      m1     0.0244
   2140 H          -11.5877     4.1908    10.8334 H       1      m1     0.0153
   2141 H          -11.7920     5.8013    10.5287 H       1      m1     0.0094
   2142 C          -11.1967     5.9446     7.3055 C       1      m1    -0.0206
   2143 C          -10.6450     4.6188     8.0963 C       1      m1    -0.0107
   2144 C          -10.7094     3.4766     7.4499 C       1      m1     0.0397
   2145 H          -10.1558     4.5290     9.2503 H       1      m1     0.0427
   2146 H           -8.1949     5.8284    10.3396 H       1      m1     0.0304
   2147 O           -8.0420     3.5035     8.2670 O       1      m1    -0.4862
   2148 C           -7.9567     6.0392     9.2366 C       1      m1    -0.0608
   2149 C           -7.1603     4.6901     8.7173 C       1      m1     0.2172
   2150 C           -6.8723     2.7475     7.7601 C       1      m1     0.1840
   2151 C           -5.8782     4.5988     8.5656 C       1      m1    -0.0396
   2152 C           -5.7414     3.3437     8.0052 C       1      m1     0.1879
   2153 H           -5.0150     3.2115    10.6796 H       1      m1     0.1173
   2154 O           -4.3281     2.7030     7.7578 O       1      m1    -0.4511
   2155 O           -2.1384     5.8694     7.6548 O       1      m1    -0.4029
   2156 C           -0.4898     2.5577     8.1003 C       1      m1     0.0259
   2157 C           -0.2626     3.4007     7.0252 C       1      m1     0.0385
   2158 C            1.7647     2.0192    10.2631 C       1      m1     0.0092
   2159 C            2.1469     3.4375    10.4895 C       1      m1     0.0028
   2160 C            2.6598     3.9978     9.2286 C       1      m1     0.0046
   2161 C            3.0020     2.6981     8.5956 C       1      m1    -0.0046
   2162 C            3.1510     4.3768     7.0618 C       1      m1    -0.0219
   2163 C            3.2638     2.9778     7.2253 C       1      m1     0.0001
   2164 C            3.4578     4.9187     8.4065 C       1      m1     0.0019
   2165 C            4.7280     5.5969     9.3186 C       1      m1    -0.0378
   2166 H            5.1689     6.0511     8.4164 H       1      m1     0.0202
   2167 C            5.6062     4.7022    10.0790 C       1      m1     0.0060
   2168 C            6.4526     4.1326     8.9645 C       1      m1    -0.0069
   2169 C            7.1137     3.9432     8.0882 C       1      m1    -0.0004
   2170 C            7.1947     1.9014     9.7464 C       1      m1     0.0005
   2171 C            8.1667     4.1342     6.9854 C       1      m1    -0.0207
   2172 H            8.3922     5.2188     6.9262 H       1      m1     0.0130
   2173 C            9.2892     3.1261     7.4476 C       1      m1    -0.0079
   2174 H            9.9706     3.8828     8.2164 H       1      m1     0.0245
   2175 H           10.2784     6.4030     7.4613 H       1      m1     0.0111
   2176 C           10.2042     5.7919    10.7700 C       1      m1    -0.0055
   2177 C           10.6416     5.6276     9.3871 C       1      m1     0.0100
   2178 C           10.9150     5.5991     8.1076 C       1      m1    -0.0332
   2179 C           11.7797     3.6649     6.8882 C       1      m1     0.0340
   2180 C           11.8731     4.4933     8.0325 C       1      m1     0.0201
   2181 C           13.2010     6.0679    10.8463 C       1      m1     0.0089
   2182 C           13.3607     4.2124     8.2705 C       1      m1    -0.0300
   2183 C           13.9003     6.2950     9.5440 C       1      m1    -0.0255
   2184 C           14.1005     2.9532     8.3598 C       1      m1     0.2585
   2185 H           14.1889     3.3996    10.5983 H       1      m1     0.0522
   2186 C           14.1929     4.9531     9.0074 C       1      m1    -0.0087
   2187 C          -14.8835    10.3987     7.2716 C       1      m1    -0.0000
   2188 H           14.9352     7.2657     7.1723 H       1      m1     0.0159
   2189 C          -13.1678     7.4438    10.8315 C       1      m1    -0.0532
   2190 O          -12.4809     9.7566    10.4671 O       1      m1    -0.4741
   2191 C          -12.2790     9.8243     7.5192 C       1      m1     0.0333
   2192 H          -12.2107     5.7328     6.9164 H       1      m1     0.0146
   2193 C          -11.9352     6.8919    10.5764 C       1      m1     0.0091
   2194 C          -11.2034     8.9611     9.6244 C       1      m1     0.1572
   2195 C          -11.1711     9.2198     8.1179 C       1      m1    -0.0225
   2196 C          -11.1149     7.4568     9.5718 C       1      m1    -0.0406
   2197 C          -10.8283     7.1216     8.1559 C       1      m1     0.0018
   2198 C          -10.3351     8.3076     7.5972 C       1      m1    -0.0085
   2199 H          -10.3689     9.2944    10.4756 H       1      m1     0.0331
   2200 H           -8.9532     8.6016    10.0141 H       1      m1     0.0143
   2201 H           -8.9112     6.0779     8.6600 H       1      m1     0.0392
   2202 C           -8.0185     8.8526    10.7126 C       1      m1    -0.0189
   2203 C           -7.0882     9.1090     7.3690 C       1      m1    -0.0104
   2204 C           -7.0071     7.2167     9.0690 C       1      m1     0.0073
   2205 C           -6.9738     7.6610     7.7046 C       1      m1    -0.0042
   2206 C           -6.9052     9.9230     8.5680 C       1      m1    -0.0069
   2207 C           -6.7896     8.2154    10.0191 C       1      m1     0.0019
   2208 C           -6.1682     9.5362     9.7371 C       1      m1    -0.0234
   2209 H           -3.7619     9.9235     7.3960 H       1      m1     0.0301
   2210 C           -2.8429     9.9675     6.8935 C       1      m1    -0.0774
   2211 H           -2.5875     8.6191     8.9132 H       1      m1     0.2155
   2212 C           -1.6089     9.1196     7.4291 C       1      m1     0.2689
   2213 O           -1.5753     8.2737     8.6038 O       1      m1    -0.4885
   2214 H            0.5950     8.8203    11.4412 H       1      m1     0.0269
   2215 C            1.2662     6.5791     6.5254 C       1      m1     0.0212
   2216 H            1.0697     8.1119     9.0776 H       1      m1     0.0715
   2217 H            1.8777     6.2630    10.7252 H       1      m1     0.0295
   2218 C            2.0996     7.5190     7.2881 C       1      m1     0.0114
   2219 C            1.9697     8.0972     8.6126 C       1      m1    -0.0248
   2220 C            3.2236     8.6768     9.1324 C       1      m1     0.0003
   2221 C            3.5217     8.5881    10.5190 C       1      m1    -0.0118
   2222 H            3.8702     6.0693     9.9269 H       1      m1     0.0221
   2223 C            4.6710     8.6106     8.4960 C       1      m1     0.0021
   2224 C            4.9086     8.9857    10.6903 C       1      m1     0.0137
   2225 C            5.2916     9.5391     7.4189 C       1      m1    -0.0042
   2226 H            5.4064     7.1942     9.9743 H       1      m1     0.0198
   2227 C            5.5974     8.1471     9.4869 C       1      m1    -0.0462
   2228 C            5.7255     8.4131     6.5887 C       1      m1    -0.0010
   2229 H            6.7007     8.0444     9.4315 H       1      m1     0.0190
   2230 H            7.5019     6.5477     6.5490 H       1      m1     0.0168
   2231 C            7.8230     9.2016     7.5814 C       1      m1    -0.0112
   2232 H            8.3594     9.5747    10.6170 H       1      m1     0.0226
   2233 C            8.6820     8.9591     9.8980 C       1      m1    -0.0159
   2234 C            8.8458     7.5265     9.8120 C       1      m1    -0.0200
   2235 H            8.7730     7.0945     8.7824 H       1      m1     0.0151
   2236 C            9.0793     9.4417     8.4875 C       1      m1    -0.0148
   2237 C            9.6663     7.1000    10.9362 C       1      m1     0.0077
   2238 H            9.9526     8.9311     7.9497 H       1      m1     0.0181
   2239 H           11.9366     8.6748     7.0599 H       1      m1     0.0287
   2240 O           13.7833     8.8767    10.4873 O       1      m1    -0.4674
   2241 C           14.2501     7.5694     9.2845 C       1      m1     0.1585
   2242 C           14.0585    10.0135     9.7152 C       1      m1     0.2371
   2243 C           14.6855     9.4207     8.3183 C       1      m1     0.0016
   2244 C           14.7202     7.9798     8.0643 C       1      m1    -0.0478
   2245 H          -14.6870    13.8858     8.7562 H       1      m1     0.0413
   2246 C          -13.8031    13.5197     8.4495 C       1      m1    -0.0640
   2247 H          -13.7257    12.5375     8.8027 H       1      m1     0.0500
   2248 H          -13.8555    13.5019     7.3151 H       1      m1     0.0237
   2249 C          -13.3690    10.3785     6.8776 C       1      m1    -0.0018
   2250 C          -12.6299    14.1568     9.2961 C       1      m1     0.0083
   2251 C          -11.2249    13.6860     9.4115 C       1      m1     0.0075
   2252 H          -10.9404    12.1860     7.6622 H       1      m1     0.0242
   2253 C          -10.6963    12.8293     8.3594 C       1      m1    -0.0255
   2254 C          -10.3323    14.0758    10.4839 C       1      m1    -0.0028
   2255 C           -9.3081    12.6724     8.8802 C       1      m1     0.0073
   2256 H           -8.7596    10.8313     8.0130 H       1      m1     0.0200
   2257 C           -8.8388    13.8894     9.9161 C       1      m1    -0.0161
   2258 C           -8.5091    11.5353     8.7033 C       1      m1    -0.0210
   2259 H           -8.0727    14.3204     6.9948 H       1      m1     0.0141
   2260 C           -7.1659    11.3846     9.0687 C       1      m1    -0.0045
   2261 C           -7.3125    13.6733    10.2029 C       1      m1    -0.0286
   2262 C           -6.4636    12.5464     9.6565 C       1      m1     0.0015
   2263 H           -6.1487     9.9252    10.6448 H       1      m1     0.0228
   2264 H           -5.8841    12.8865     7.8402 H       1      m1     0.0190
   2265 C           -5.2280    12.7682     8.7963 C       1      m1    -0.0374
   2266 H           -4.4134    12.0732     8.5634 H       1      m1     0.0216
   2267 C           -4.5191    13.8474     9.5361 C       1      m1     0.0044
   2268 C           -4.1047    13.7810    10.9545 C       1      m1    -0.0182
   2269 H           -1.7666   -14.1259     9.2474 H       1      m1     0.0185
   2270 C           -1.6740    13.6369     9.4809 C       1      m1    -0.0415
   2271 H           -1.9347    12.8098     9.0063 H       1      m1     0.0244
   2272 H           -0.6505    13.2026     6.8274 H       1      m1     0.0131
   2273 C           -0.6960    13.7672    10.3595 C       1      m1    -0.0045
   2274 C            2.3842    12.9102     7.8247 C       1      m1     0.0046
   2275 C            2.4689    14.3512     7.6207 C       1      m1    -0.0447
   2276 H            3.0992    13.7364    10.4707 H       1      m1    -0.0026
   2277 C            3.4968    12.8032     8.5712 C       1      m1    -0.0179
   2278 C            3.6836    13.0000     9.9932 C       1      m1     0.2245
   2279 C            4.1111    11.5385     8.2998 C       1      m1     0.0009
   2280 C            4.6889    10.8649     7.1773 C       1      m1    -0.0134
   2281 O            5.0210    12.4264    10.4070 O       1      m1    -0.4422
   2282 C            5.5340    11.8715     8.9641 C       1      m1     0.1352
   2283 H            6.0059    12.6696     8.4829 H       1      m1     0.0762
   2284 H            6.2727    10.9976     9.4089 H       1      m1     0.0223
   2285 H            7.6341    12.0543     9.3598 H       1      m1     0.0551
   2286 C            8.0400    10.5541     7.4718 C       1      m1     0.0180
   2287 C            8.1757    11.7195     6.7663 C       1      m1    -0.0494
   2288 C            8.4321    11.9147    10.0625 C       1      m1     0.0120
   2289 C            8.9396    13.7394     7.8634 C       1      m1     0.2279
   2290 C            9.7204    12.0086     9.3213 C       1      m1    -0.0251
   2291 C            9.8429    12.6799     7.8650 C       1      m1    -0.0417
   2292 C           10.7434    12.1888    10.0984 C       1      m1     0.1998
   2293 C           11.0476    12.6424     6.9939 C       1      m1     0.0127
   2294 O           12.2368    12.3710     9.4098 O       1      m1    -0.4475
   2295 C           12.4910    13.1677     6.8895 C       1      m1     0.0223
   2296 C           13.3881    11.1739     9.1693 C       1      m1     0.1357
   2297 C           13.8203    12.5966     6.9288 C       1      m1     0.0175
   2298 C           14.2225    11.4458     7.7976 C       1      m1    -0.0118
   2299 C          -13.6037   -13.9448    15.5388 C       1      m1    -0.0081
   2300 C          -13.2638   -14.2700    14.3337 C       1      m1    -0.0047
   2301 C          -12.9475   -14.2351    13.1595 C       1      m1    -0.0027
   2302 C          -12.4912   -11.5343    14.8283 C       1      m1    -0.0013
   2303 C          -12.1769   -11.6886    13.5029 C       1      m1     0.0212
   2304 C          -12.1976   -13.1147    12.6407 C       1      m1    -0.0053
   2305 C          -12.0048   -13.3799    11.2725 C       1      m1     0.0017
   2306 C          -10.5674   -14.0513    11.4969 C       1      m1     0.0030
   2307 C           -9.7568   -11.5555    14.6287 C       1      m1     0.0036
   2308 C           -9.5613   -13.0361    14.8669 C       1      m1    -0.0113
   2309 C           -9.3714   -14.1224    12.5273 C       1      m1    -0.0227
   2310 C           -9.2909   -13.4645    13.5998 C       1      m1     0.0158
   2311 H           -7.0878   -12.2111    10.9624 H       1      m1     0.0263
   2312 H           -5.6233   -11.0357    11.5604 H       1      m1     0.0219
   2313 C           -3.5669   -11.6647    14.8359 C       1      m1     0.0188
   2314 H           -3.7316   -11.6019    11.7859 H       1      m1     0.0161
   2315 H           -3.1484   -12.9350    13.2859 H       1      m1     0.0196
   2316 C           -2.7640   -12.0634    13.9144 C       1      m1    -0.0472
   2317 C           -1.8660   -10.8649    13.1986 C       1      m1     0.1449
   2318 C           -1.0747   -12.9612    11.7287 C       1      m1    -0.0250
   2319 C            0.3651   -13.4156    11.6403 C       1      m1    -0.0099
   2320 H            1.3415   -10.9472    12.4213 H       1      m1     0.0181
   2321 C            1.2017   -13.8985    13.0125 C       1      m1    -0.0614
   2322 C            1.5170   -13.0144    13.9594 C       1      m1     0.0622
   2323 C            2.2826   -12.0540    14.8786 C       1      m1     0.0095
   2324 C            3.7014   -11.6013    14.7158 C       1      m1     0.0082
   2325 C            4.0986   -10.2525    12.1306 C       1      m1    -0.0027
   2326 C            4.4197   -11.2762    13.3664 C       1      m1    -0.0047
   2327 C            5.6266   -11.6988    13.3414 C       1      m1     0.0167
   2328 H            6.0351   -10.8291    15.3912 H       1      m1     0.0183
   2329 C            6.9081   -12.0888    13.1658 C       1      m1    -0.0239
   2330 H            6.7338    14.2701    13.6252 H       1      m1     0.0444
   2331 H            7.5333   -12.8985    13.4367 H       1      m1     0.0237
   2332 C            7.4187   -11.4207    11.7447 C       1      m1     0.0142
   2333 H            8.3647   -11.1531    12.2007 H       1      m1     0.0114
   2334 C            9.9391   -11.7358    15.3913 C       1      m1     0.0068
   2335 C           10.5928   -11.3110    14.1933 C       1      m1    -0.0528
   2336 C           11.5624   -10.9738    13.3844 C       1      m1     0.1617
   2337 C           13.0554   -14.3022    13.0894 C       1      m1     0.0002
   2338 C           12.9764   -11.5916    13.1734 C       1      m1     0.1272
   2339 C           13.5999   -14.2067    14.4038 C       1      m1    -0.0281
   2340 C           13.2881   -13.4478    11.8825 C       1      m1    -0.0114
   2341 C           13.9381   -12.0042    12.1401 C       1      m1    -0.0459
   2342 H           14.4378   -11.3936    11.4900 H       1      m1     0.0395
   2343 H           14.5520   -13.4461    14.0662 H       1      m1     0.0201
   2344 H          -14.3896    -8.6886    14.9167 H       1      m1     0.0368
   2345 H          -14.5005    -8.3453    12.6650 H       1      m1     0.0421
   2346 C          -13.4785    -8.2685    12.3341 C       1      m1    -0.0156
   2347 C          -13.0312    -6.8459    14.3874 C       1      m1    -0.0177
   2348 H          -13.2442    -9.2415    12.0099 H       1      m1     0.0540
   2349 C          -12.7094    -7.1929    13.0598 C       1      m1     0.0289
   2350 C          -12.1480   -10.2866    15.3339 C       1      m1     0.0023
   2351 H          -12.0546    -6.2257    12.8860 H       1      m1     0.0263
   2352 C          -11.6204    -9.1667    15.4452 C       1      m1     0.0043
   2353 O          -10.7355    -8.7460    11.6817 O       1      m1    -0.4530
   2354 C           -9.3373   -10.1790    14.4588 C       1      m1     0.0134
   2355 C           -9.4688    -8.7194    15.0054 C       1      m1    -0.0119
   2356 C           -8.8201    -7.7266    13.9740 C       1      m1     0.0358
   2357 C           -8.4946    -6.5003    14.7610 C       1      m1    -0.0057
   2358 H           -8.2260   -10.5706    14.2733 H       1      m1     0.0203
   2359 H           -4.9552    -9.6300    14.0132 H       1      m1     0.0227
   2360 C           -4.7688    -7.9397    15.0347 C       1      m1    -0.0004
   2361 C           -4.5944    -8.6342    13.7378 C       1      m1     0.0071
   2362 C           -4.5942    -7.9205    11.4941 C       1      m1     0.0326
   2363 C           -4.2742    -7.5680    12.7258 C       1      m1     0.0255
   2364 C           -1.9082    -6.1733    11.7980 C       1      m1     0.0195
   2365 O           -1.5002    -9.4449    13.5259 O       1      m1    -0.4418
   2366 C           -0.8361   -10.4433    12.5932 C       1      m1     0.1326
   2367 C            0.6251   -10.2416    12.0133 C       1      m1    -0.0239
   2368 C            1.1574    -8.5494   -15.4884 C       1      m1    -0.0158
   2369 H            0.8686    -9.2923    14.5313 H       1      m1     0.0475
   2370 H            1.6474    -8.1066    11.4563 H       1      m1     0.0268
   2371 H            2.0362    -8.4877    13.1645 H       1      m1     0.0231
   2372 C            1.7651    -8.8502    12.0856 C       1      m1    -0.0242
   2373 C            3.0299    -9.5765    11.9561 C       1      m1    -0.0142
   2374 H            3.8371    -7.3740    14.1557 H       1      m1     0.0184
   2375 C            5.0578    -7.5361    14.3108 C       1      m1    -0.0250
   2376 C            5.6908    -7.7440   -15.4812 C       1      m1     0.0037
   2377 C            5.9623    -8.2080    13.3270 C       1      m1    -0.0053
   2378 C            6.5895   -10.2925    11.3224 C       1      m1     0.0021
   2379 C            7.1825    -8.7117    13.0963 C       1      m1    -0.0056
   2380 C            7.3156    -8.9971    11.4484 C       1      m1    -0.0069
   2381 C            7.9471    -8.9598   -15.4554 C       1      m1    -0.0060
   2382 C            8.1686    -8.7007    14.1641 C       1      m1    -0.0175
   2383 H            9.2827    -9.1199    13.8750 H       1      m1     0.0143
   2384 H            9.7981    -6.3184    10.9500 H       1      m1     0.0245
   2385 C           10.2527    -7.3179    11.1264 C       1      m1    -0.0162
   2386 H           11.6134    -8.8342    15.2729 H       1      m1     0.0592
   2387 C           11.1238    -8.0018    12.0144 C       1      m1     0.0139
   2388 C           11.4206    -6.4958    14.0156 C       1      m1     0.0005
   2389 H           11.3670    -9.0040    11.9687 H       1      m1     0.0390
   2390 C           11.8332    -6.4409    15.4491 C       1      m1    -0.0187
   2391 C           11.6014    -7.7086    13.3292 C       1      m1    -0.0026
   2392 H           11.4691    -8.6466    13.6504 H       1      m1     0.0741
   2393 O           12.7059   -10.0766    13.7882 O       1      m1    -0.4723
   2394 H           13.8336    -7.9659    14.8128 H       1      m1     0.0576
   2395 H           14.5699    -6.0251    13.5207 H       1      m1     0.0259
   2396 C          -14.0639    -3.9358    13.2074 C       1      m1     0.0105
   2397 H          -14.3651    -2.8769    15.0203 H       1      m1     0.0172
   2398 C          -12.9123    -3.3554    13.4817 C       1      m1    -0.0216
   2399 H          -12.0593    -4.0597    13.9140 H       1      m1     0.0193
   2400 C           -9.8165    -4.7738    15.1948 C       1      m1     0.0077
   2401 H           -9.2892    -2.1644    10.9644 H       1      m1     0.0906
   2402 C           -8.8583    -4.4701    14.0365 C       1      m1    -0.0132
   2403 H           -8.5645    -4.5334    11.1091 H       1      m1     0.0446
   2404 H           -9.0653    -3.6107    13.4374 H       1      m1     0.0393
   2405 C           -8.1274    -5.5874    13.6339 C       1      m1    -0.0218
   2406 C           -7.3017    -3.1347    11.3992 C       1      m1    -0.0534
   2407 H           -7.6139    -6.0177    12.7691 H       1      m1     0.0710
   2408 C           -6.5957    -4.4042    11.5604 C       1      m1     0.2040
   2409 C           -5.7109    -4.2828    12.7823 C       1      m1    -0.0564
   2410 H           -5.3724    -3.1652    13.1848 H       1      m1     0.0214
   2411 C           -5.0064    -2.3754    15.4666 C       1      m1    -0.0069
   2412 C           -4.7702    -5.0642    12.9013 C       1      m1     0.0369
   2413 C           -4.0548    -2.2985    14.9043 C       1      m1    -0.0119
   2414 C           -3.8107    -5.9488    12.9826 C       1      m1    -0.0053
   2415 H           -3.1664    -5.8529   -15.5024 H       1      m1     0.0284
   2416 C           -2.6758    -2.3643    14.3821 C       1      m1    -0.0106
   2417 C           -2.2712    -5.8691    13.0094 C       1      m1     0.0191
   2418 C           -2.1334    -3.6165    14.7766 C       1      m1    -0.0025
   2419 C           -1.6969    -3.7973    12.1963 C       1      m1    -0.0045
   2420 C           -1.5113    -4.4213    13.4663 C       1      m1    -0.0189
   2421 H           -0.5165    -4.3157    14.0350 H       1      m1     0.0197
   2422 H            1.1421    -5.0255    15.0177 H       1      m1     0.0155
   2423 H            1.4399    -4.9699    12.8758 H       1      m1     0.0266
   2424 C            1.7004    -3.8711    12.4766 C       1      m1     0.0017
   2425 H            2.0060    -2.9756    11.6711 H       1      m1     0.0460
   2426 C            1.8896    -4.2183    14.6877 C       1      m1    -0.0157
   2427 C            1.8478    -3.1696    13.5504 C       1      m1    -0.0002
   2428 H            2.6699    -1.8673    15.5160 H       1      m1     0.0383
   2429 C            2.9643    -4.5520    15.2379 C       1      m1     0.0093
   2430 H            4.3606    -5.6221    13.6694 H       1      m1    -0.0066
   2431 O            4.5777    -4.0713    11.9445 O       1      m1    -0.4954
   2432 C            4.9732    -5.2491    12.7937 C       1      m1     0.2175
   2433 C            5.8471    -3.9965    11.1077 C       1      m1     0.2133
   2434 C            6.2037    -5.7135    12.3008 C       1      m1    -0.0334
   2435 C            6.9446    -4.9553    11.3839 C       1      m1    -0.0379
   2436 C            8.3939    -4.8956    14.7562 C       1      m1    -0.0080
   2437 C            9.1568    -4.2505    12.1631 C       1      m1    -0.0053
   2438 C            9.1620    -4.8040    13.5253 C       1      m1    -0.0023
   2439 C            9.4984    -2.3812    13.8388 C       1      m1     0.0024
   2440 C           10.5907    -3.7368    11.8814 C       1      m1     0.0017
   2441 C           10.4230    -2.6359    14.7773 C       1      m1    -0.0354
   2442 C           10.4259    -5.5733    13.4562 C       1      m1    -0.0018
   2443 H           10.3143    -2.4654   -15.4510 H       1      m1     0.0204
   2444 C           11.4690    -2.6270    12.3716 C       1      m1     0.0075
   2445 C           11.1203    -5.0005    12.3916 C       1      m1    -0.0223
   2446 C           11.6298    -2.6569    13.8142 C       1      m1     0.0034
   2447 H           12.1520    -5.2984    12.0410 H       1      m1     0.0420
   2448 C           13.0097    -3.1131    14.2805 C       1      m1    -0.0109
   2449 C           13.4959    -4.0824    13.3715 C       1      m1    -0.0083
   2450 C           13.5143    -3.8067    11.8807 C       1      m1     0.0296
   2451 C           14.7182    -4.8920    13.2599 C       1      m1    -0.0141
   2452 C          -14.8012    -0.1850    12.8185 C       1      m1     0.2458
   2453 C          -14.5787     2.0005    11.9939 C       1      m1     0.2418
   2454 C          -13.3276    -0.5562    13.0115 C       1      m1    -0.0352
   2455 C          -13.2135     1.8243    12.1458 C       1      m1    -0.0528
   2456 C          -13.0192    -1.8657    13.2990 C       1      m1     0.0375
   2457 C          -12.5746     0.6480    12.7543 C       1      m1    -0.0318
   2458 C          -11.1607     1.5190    15.3333 C       1      m1     0.0196
   2459 C          -11.0009     0.4754    12.8984 C       1      m1     0.3392
   2460 C          -10.8615     1.8104    13.7137 C       1      m1    -0.0728
   2461 O          -10.1711    -0.4369    13.0807 O       1      m1    -0.5035
   2462 H           -9.9488     2.1145    13.8675 H       1      m1     0.0456
   2463 H           -8.5001     1.2469    14.7796 H       1      m1     0.0452
   2464 H           -7.2532     0.7167    12.2449 H       1      m1     0.0900
   2465 C           -6.8015    -0.2802    12.0919 C       1      m1    -0.0160
   2466 H           -6.1022    -0.8469    12.9466 H       1      m1     0.0205
   2467 H           -6.1103     1.4612    15.4087 H       1      m1     0.0144
   2468 C           -5.3931    -0.0179    11.3206 C       1      m1     0.0321
   2469 C           -4.4115     0.8735    11.9146 C       1      m1     0.0151
   2470 C           -3.8268     2.1932    12.2391 C       1      m1     0.0002
   2471 H           -3.5136     0.0037    14.7120 H       1      m1     0.0182
   2472 C           -2.6640     0.2869    14.1347 C       1      m1    -0.0296
   2473 C           -1.9979    -0.9403    13.9856 C       1      m1     0.0036
   2474 C           -1.7426     1.5448    14.5200 C       1      m1    -0.0003
   2475 C           -0.9750    -0.7420    13.0068 C       1      m1    -0.0447
   2476 C           -0.4706    -1.4184    11.8787 C       1      m1    -0.0066
   2477 H            0.0353    -1.4346    15.3654 H       1      m1     0.0389
   2478 C            0.0462     0.2197    13.5969 C       1      m1     0.1331
   2479 C            0.9656     0.5696    12.4343 C       1      m1     0.1420
   2480 O            1.5775     0.7557    13.9253 O       1      m1    -0.4407
   2481 H            2.1868    -2.0350    13.3316 H       1      m1     0.0477
   2482 H            3.9953     0.1977    14.4236 H       1      m1     0.0578
   2483 H            3.8607     1.2043    12.7877 H       1      m1     0.0556
   2484 C            4.7590     1.7444    12.4780 C       1      m1    -0.0185
   2485 C            4.8461     0.9293    14.4769 C       1      m1    -0.0164
   2486 C            5.4230    -0.6059    11.8115 C       1      m1     0.0136
   2487 C            5.8519     1.2365    13.4650 C       1      m1    -0.0083
   2488 C            6.3314     0.1421    12.6806 C       1      m1    -0.0052
   2489 C            7.6173     0.7658    11.9930 C       1      m1    -0.0051
   2490 H            7.8333    -1.5502    12.7526 H       1      m1     0.0245
   2491 C            8.6216    -0.1967    11.6397 C       1      m1    -0.0115
   2492 C            8.7438    -2.1021    12.8177 C       1      m1    -0.0283
   2493 C            9.5141    -1.2657    11.5312 C       1      m1    -0.0119
   2494 H            9.5843     0.2996    13.8227 H       1      m1     0.0207
   2495 C           10.6258     0.5379    13.7773 C       1      m1    -0.0366
   2496 H           11.1964    -0.1833    14.3987 H       1      m1     0.0310
   2497 C           11.3233     0.1180    12.4847 C       1      m1     0.0357
   2498 C           11.2516    -1.1718    11.7729 C       1      m1    -0.0191
   2499 C           11.5730     1.2487    11.7573 C       1      m1     0.0059
   2500 C           14.0223    -2.0959    14.6062 C       1      m1     0.0057
   2501 O           14.2765     1.0258    12.4998 O       1      m1    -0.4887
   2502 C           14.4961    -1.1049    13.7531 C       1      m1    -0.0143
   2503 C           14.9584     3.0808    11.1715 C       1      m1    -0.0598
   2504 H          -14.1873     5.5154    12.1262 H       1      m1     0.0175
   2505 H          -12.9822     4.3739    14.4139 H       1      m1     0.0128
   2506 C          -12.7880     3.9422    15.4072 C       1      m1    -0.0165
   2507 H          -12.5683     5.8219    14.0334 H       1      m1     0.0113
   2508 C          -12.6139     3.8542    11.0609 C       1      m1    -0.0357
   2509 C          -12.0693     2.7815    12.2101 C       1      m1    -0.0033
   2510 C          -11.3059     3.1670    13.3285 C       1      m1    -0.0067
   2511 C          -10.3552     5.5876    13.3329 C       1      m1     0.0171
   2512 C          -10.1502     4.1099    13.0759 C       1      m1     0.0088
   2513 C           -8.6837     4.1975    12.3912 C       1      m1    -0.1064
   2514 C           -8.1558     5.6855    12.5212 C       1      m1     0.0225
   2515 C           -7.6537     3.3800    11.7626 C       1      m1     0.3855
   2516 O           -6.8394     2.6518    11.2652 O       1      m1    -0.5518
   2517 C           -6.8518     5.9598    13.1343 C       1      m1    -0.0197
   2518 C           -5.8756     5.0724    12.7122 C       1      m1     0.0003
   2519 C           -4.8912     4.2424    12.3410 C       1      m1     0.0138
   2520 C           -4.7866     6.3644    14.2133 C       1      m1    -0.0053
   2521 C           -4.2414     3.3642    11.4715 C       1      m1     0.0077
   2522 H           -3.9038     4.5145    14.4378 H       1      m1     0.0193
   2523 C           -2.8699     4.2788    14.4901 C       1      m1    -0.0353
   2524 H           -2.6587     3.4094    13.8066 H       1      m1     0.0224
   2525 C           -2.2797     2.0634    11.7902 C       1      m1     0.0078
   2526 C           -2.2757     5.4674    13.5514 C       1      m1    -0.0361
   2527 H           -2.0238     5.4240    12.5215 H       1      m1     0.0363
   2528 H           -1.5669     6.1798    14.2407 H       1      m1     0.0200
   2529 C           -1.2463     2.8752    12.5297 C       1      m1    -0.0262
   2530 H           -0.8878     3.7714    12.0412 H       1      m1     0.0370
   2531 C           -0.8909     2.5487    13.8181 C       1      m1     0.0069
   2532 C            0.3701     3.1196    14.6656 C       1      m1     0.0126
   2533 C            0.8070     5.2971    13.9170 C       1      m1    -0.0099
   2534 C            0.9965     6.2727    15.2038 C       1      m1    -0.0048
   2535 C            1.0459     3.9776    13.8840 C       1      m1    -0.0021
   2536 C            1.5328     6.0937    12.9531 C       1      m1     0.0043
   2537 C            2.1391     5.6021    11.7033 C       1      m1    -0.0192
   2538 C            2.5697     4.2546    11.6121 C       1      m1     0.0042
   2539 C            2.4506     3.6893    14.0277 C       1      m1     0.0241
   2540 C            2.6827     3.3613    15.5204 C       1      m1    -0.0253
   2541 C            3.2931     3.8757    12.9626 C       1      m1    -0.0029
   2542 C            4.7005     3.1804    13.0014 C       1      m1     0.0056
   2543 C            5.6537     4.1249    13.2836 C       1      m1     0.0009
   2544 C            6.1410     5.0919    11.3276 C       1      m1    -0.0073
   2545 H            6.5603     2.1618    13.9279 H       1      m1     0.0174
   2546 C            6.7394     4.9500    13.4520 C       1      m1    -0.0247
   2547 C            6.7798     5.7544    12.2362 C       1      m1     0.0067
   2548 H            7.0328     5.4506    14.2271 H       1      m1     0.0245
   2549 C            7.7995     2.0596    11.2150 C       1      m1    -0.0004
   2550 C            8.3179     3.1550    11.6604 C       1      m1    -0.0054
   2551 C            8.9668     4.2649    12.3935 C       1      m1    -0.0029
   2552 C            9.3675     4.0844    13.7470 C       1      m1    -0.0075
   2553 C            9.8527     3.0865    14.5927 C       1      m1    -0.0087
   2554 C           10.0922     4.4169    11.4916 C       1      m1    -0.0006
   2555 C           10.7814     2.1594    13.7236 C       1      m1     0.0080
   2556 C           11.3851     2.5744    12.3955 C       1      m1     0.0241
   2557 C           11.4038     4.0680    11.6686 C       1      m1     0.0085
   2558 C           12.3164     4.9898    11.2564 C       1      m1    -0.0084
   2559 H           13.3010     5.5487    13.3399 H       1      m1     0.0184
   2560 H          -14.8803     3.7607    15.0192 H       1      m1     0.0257
   2561 C          -14.2867     7.6022    12.6220 C       1      m1     0.0194
   2562 C          -14.4870    10.3181    12.6740 C       1      m1     0.0354
   2563 C          -13.9027     8.9991    12.3158 C       1      m1    -0.0335
   2564 C          -13.8267     6.5853    12.0173 C       1      m1    -0.0232
   2565 C          -13.1887     8.7225    11.2222 C       1      m1     0.2798
   2566 C          -11.8629    10.4040    13.6070 C       1      m1     0.0189
   2567 C          -11.7427     9.0485    13.9549 C       1      m1     0.0275
   2568 H          -11.7673     7.5806    15.3896 H       1      m1     0.0241
   2569 C          -11.5386     6.3120    13.6013 C       1      m1    -0.0222
   2570 C          -11.5639     7.7877    14.2741 C       1      m1     0.0126
   2571 C           -9.0232     6.3453    13.3163 C       1      m1    -0.0621
   2572 O           -8.8972     8.5098    14.8531 O       1      m1    -0.4916
   2573 C           -8.6499     7.3035    14.4694 C       1      m1     0.3060
   2574 C           -8.1411     9.8050    11.7021 C       1      m1     0.0116
   2575 H           -6.7190     9.0196    15.1105 H       1      m1     0.0685
   2576 C           -6.2180     6.2808    14.6746 C       1      m1    -0.0138
   2577 C           -3.5228     6.6980    13.7556 C       1      m1    -0.0139
   2578 C           -3.4207    10.3681    12.5127 C       1      m1    -0.0063
   2579 H           -2.5442     7.2877    13.8294 H       1      m1     0.0163
   2580 H           -1.4237     8.2209    12.0088 H       1      m1     0.0294
   2581 C           -1.3469     9.3000    11.7354 C       1      m1     0.0057
   2582 C           -0.0309     9.5261    11.4769 C       1      m1    -0.0098
   2583 C            1.9542     7.2631    14.8537 C       1      m1     0.0026
   2584 C            2.2659     7.2874    13.5275 C       1      m1    -0.0286
   2585 C            2.4526     9.9378    15.1283 C       1      m1     0.0198
   2586 C            2.8383     9.6185    12.8451 C       1      m1    -0.0040
   2587 C            3.0682     9.1988    11.7263 C       1      m1    -0.0027
   2588 H            3.2044     7.5323    12.9276 H       1      m1     0.0186
   2589 H            4.0359     8.1348    14.9400 H       1      m1     0.0203
   2590 C            5.3002     9.0793    12.1032 C       1      m1    -0.0072
   2591 C            5.8662     9.6620    13.0407 C       1      m1     0.0060
   2592 H            7.1478     7.8675    12.9763 H       1      m1     0.0263
   2593 H            6.9597     7.5203    11.1970 H       1      m1     0.0209
   2594 C            7.3623     7.3161    12.1860 C       1      m1    -0.0428
   2595 C            7.6421    10.1900    14.7329 C       1      m1    -0.0053
   2596 C            8.8511     7.1159    12.1159 C       1      m1     0.0081
   2597 C            8.9554     7.5482    14.4810 C       1      m1    -0.0012
   2598 C            9.4448     6.8728    13.4009 C       1      m1    -0.0166
   2599 H           10.5437     6.5018    13.6631 H       1      m1     0.0223
   2600 C           11.3695     7.9890    15.2434 C       1      m1    -0.0031
   2601 C           12.4080     7.4316    14.5766 C       1      m1    -0.0037
   2602 C           13.3660     6.7151    13.7723 C       1      m1    -0.0086
   2603 H           12.6884     6.8219    11.4956 H       1      m1     0.0569
   2604 C           14.6141     7.3110    13.7885 C       1      m1    -0.0155
   2605 H           14.7153     8.1743    14.3520 H       1      m1     0.0222
   2606 H          -14.1645    13.3051    11.4647 H       1      m1     0.0352
   2607 C          -13.5908    13.4546    12.2630 C       1      m1    -0.0283
   2608 C          -13.1420    12.2606    12.6897 C       1      m1     0.0190
   2609 C          -13.1540    10.9583    13.1039 C       1      m1     0.0059
   2610 C          -11.1154    12.7521    14.6157 C       1      m1    -0.0240
   2611 C          -10.8343    11.4624    13.7893 C       1      m1     0.0115
   2612 H          -10.2673    13.3325    14.4049 H       1      m1     0.0253
   2613 C           -9.6383    11.1373    13.1840 C       1      m1     0.0340
   2614 H           -8.7202    14.0757    12.1874 H       1      m1     0.0246
   2615 H           -8.1067    12.8324    15.0539 H       1      m1     0.0634
   2616 C           -8.3752    10.7313    12.6484 C       1      m1     0.0149
   2617 C           -7.6885    11.6530    14.8688 C       1      m1    -0.0012
   2618 C           -7.1141    11.0829    13.5909 C       1      m1     0.0108
   2619 H           -6.7997    13.6840    11.2947 H       1      m1     0.0172
   2620 C           -5.8470    10.7712    13.2133 C       1      m1    -0.0103
   2621 H           -5.4879    13.3727    15.4014 H       1      m1     0.0733
   2622 C           -4.4827    12.9195   -15.3682 C       1      m1    -0.0188
   2623 H           -4.7806    13.3457    11.7120 H       1      m1     0.0152
   2624 C           -4.7804    10.3438    12.6160 C       1      m1    -0.0095
   2625 C           -3.4802    12.9089    14.7710 C       1      m1    -0.0212
   2626 H           -3.3279    13.2813    13.8069 H       1      m1     0.0147
   2627 C           -2.7583    13.9856    11.3748 C       1      m1    -0.0126
   2628 C           -2.4746    12.4479   -15.4372 C       1      m1    -0.0126
   2629 C           -2.0538    10.4465    12.3448 C       1      m1    -0.0082
   2630 H           -2.4485    13.8401    12.4993 H       1      m1     0.0149
   2631 H           -1.5641    12.3504    15.3699 H       1      m1     0.0355
   2632 C           -1.1446    11.7331    12.1325 C       1      m1    -0.0063
   2633 C            0.0768    10.9681    11.9849 C       1      m1    -0.0032
   2634 H            0.2290    11.2619    14.2820 H       1      m1     0.0108
   2635 C            0.3806    13.9387    11.1718 C       1      m1     0.0082
   2636 C            0.9164    13.1917    12.2306 C       1      m1    -0.0771
   2637 C            1.3044    13.7461    13.2565 C       1      m1     0.2754
   2638 C            1.3245    11.6376    13.8713 C       1      m1     0.1887
   2639 C            1.4089    11.7233    12.2665 C       1      m1    -0.0386
   2640 O            1.5692    13.0120    14.5290 O       1      m1    -0.4516
   2641 H            2.4224    11.5699    11.8915 H       1      m1     0.0462
   2642 C            2.4411    10.5003    13.8830 C       1      m1    -0.0185
   2643 C            5.0284    12.6465    14.7518 C       1      m1    -0.0029
   2644 C            6.0908    11.9501    14.2443 C       1      m1     0.0189
   2645 C            6.1530    10.2774    14.2854 C       1      m1    -0.0035
   2646 H            7.3908    11.8186    11.9488 H       1      m1     0.0573
   2647 C            7.4790    12.4134    14.0888 C       1      m1    -0.0056
   2648 C            7.7923    13.7855    13.5929 C       1      m1    -0.0145
   2649 C            8.3666    11.6453    11.5746 C       1      m1    -0.0244
   2650 C            8.3761    11.3350    14.1556 C       1      m1    -0.0060
   2651 C            9.0610    14.1213    13.2835 C       1      m1    -0.0025
   2652 C            9.6463    11.9111    12.3448 C       1      m1     0.0027
   2653 C            9.7356    11.2666    13.5716 C       1      m1     0.0053
   2654 C           10.4541    14.2953    13.0045 C       1      m1    -0.0094
   2655 C           10.8694    12.1473    11.5469 C       1      m1    -0.0232
   2656 C           10.5983    11.2106    14.7359 C       1      m1    -0.0204
   2657 C           11.8193    13.7853    12.8590 C       1      m1    -0.0111
   2658 H           11.7505    11.2588    14.5993 H       1      m1     0.0224
   2659 C           12.2094    12.5936    12.1790 C       1      m1     0.0477
   2660 C           13.3951    11.8325    12.4437 C       1      m1    -0.0019
   2661 C           13.7877    13.7647    15.1161 C       1      m1     0.0044
   2662 C           14.2392    11.0514    12.3106 C       1      m1     0.0426
   2663 B           14.9646   -14.4820    15.5736 B       2     BOX     0.0000
   2664 B          -14.9646   -14.4820    15.5736 B       2     BOX     0.0000
   2665 B          -14.9646    14.4820    15.5736 B       2     BOX     0.0000
   2666 B           14.9646    14.4820    15.5736 B       2     BOX     0.0000
   2667 B           14.9646   -14.4820   -15.5736 B       2     BOX     0.0000
   2668 B          -14.9646   -14.4820   -15.5736 B       2     BOX     0.0000
   2669 B          -14.9646    14.4820   -15.5736 B       2     BOX     0.0000
   2670 B           14.9646    14.4820   -15.5736 B       2     BOX     0.0000
@<TRIPOS>BOND
     1      1      4      1
     2      3      4      1
     3      3    391      1
     4      4     55      1
     5      5      6      1
     6      6      7      1
     7      7      8      1
     8      7    345      1
     9      8     11      1
    10      9     12      1
    11     12     13      1
    12     12     60      1
    13     14     15      1
    14     15   2313      1
    15     16     19      1
    16     17     21      1
    17     18     70      1
    18     19     20      1
    19     19     21      1
    20     21     22      1
    21     22     25      1
    22     23     26      1
    23     23     77      1
    24     23    410      1
    25     24     25      1
    26     25     29      1
    27     27     31      1
    28     28     30      1
    29     28    413      1
    30     29     31      1
    31     30     31      1
    32     31     32      1
    33     32     33      1
    34     32     34      1
    35     33     35      1
    36     34     36      1
    37     35     37      1
    38     36     37      1
    39     36     89      1
    40     37     38      1
    41     39    426      1
    42     40     97      1
    43     41     44      1
    44     41    435      1
    45     42     43      1
    46     44    101      1
    47     46     50      1
    48     47     50      1
    49     48     51      1
    50     48    441      1
    51     49     50      1
    52     49     51      1
    53     52     54      1
    54     54    111      1
    55     55     56      1
    56     55    447      1
    57     57     58      1
    58     58    111      1
    59     58    120      1
    60     60     61      1
    61     61     63      1
    62     62     65      1
    63     63    457      1
    64     63    458      1
    65     64     67      1
    66     65     66      1
    67     65     68      1
    68     65     69      1
    69     66     71      1
    70     67     70      1
    71     68     73      1
    72     69     70      1
    73     69     72      1
    74     71     72      1
    75     71    463      1
    76     72     74      1
    77     73     75      1
    78     73   2415      1
    79     74     77      1
    80     74    464      1
    81     75     76      1
    82     75     78      1
    83     77     79      1
    84     78     80      1
    85     78    131      1
    86     80   2368      1
    87     81     82      1
    88     81    132      1
    89     81    471      1
    90     83     84      1
    91     83   2368      1
    92     84     86      1
    93     85     87      1
    94     85    482      1
    95     86     87      1
    96     86     88      1
    97     86   2376      1
    98     87    143      1
    99     90   2376      1
   100     90   2381      1
   101     91     93      1
   102     92     94      1
   103     92    489      1
   104     93     94      1
   105     93     95      1
   106     93    147      1
   107     94    148      1
   108     96    491      1
   109     97     98      1
   110     97   2381      1
   111     99    100      1
   112     99    153      1
   113     99    155      1
   114    100    103      1
   115    100    496      1
   116    101    103      1
   117    102    104      1
   118    103    104      1
   119    104    105      1
   120    105    107      1
   121    106   2394      1
   122    108    164      1
   123    110    112      1
   124    110    118      1
   125    110    166      1
   126    111    113      1
   127    112    113      1
   128    112    114      1
   129    113    116      1
   130    114    117      1
   131    114    119      1
   132    114    512      1
   133    118    119      1
   134    118    174      1
   135    119    517      1
   136    121    122      1
   137    122    123      1
   138    123    124      1
   139    123    125      1
   140    124    126      1
   141    124    127      1
   142    125    128      1
   143    126    180      1
   144    127    130      1
   145    127    525      1
   146    128    129      1
   147    130    132      1
   148    132    133      1
   149    133    134      1
   150    133    531      1
   151    134    135      1
   152    135    136      1
   153    135    185      1
   154    136    139      1
   155    137    138      1
   156    137    531      1
   157    138    139      1
   158    138    192      1
   159    139    194      1
   160    140    143      1
   161    141    142      1
   162    142    537      1
   163    143    144      1
   164    144    145      1
   165    144    147      1
   166    145    149      1
   167    145    199      1
   168    146    148      1
   169    148    150      1
   170    148    540      1
   171    149    151      1
   172    151    152      1
   173    151    208      1
   174    152    154      1
   175    152    207      1
   176    154    157      1
   177    154    211      1
   178    155    158      1
   179    155    550      1
   180    157    158      1
   181    158    159      1
   182    159    160      1
   183    159    162      1
   184    160    550      1
   185    163    168      1
   186    163    218      1
   187    164    166      1
   188    164    167      1
   189    165    166      1
   190    165    169      1
   191    165    556      1
   192    167    170      1
   193    168    169      1
   194    168    171      1
   195    168    557      1
   196    169    172      1
   197    172    173      1
   198    172    174      1
   199    173    229      1
   200    174    175      1
   201    176    177      1
   202    176    226      1
   203    177    178      1
   204    178    179      1
   205    178    233      1
   206    179    242      1
   207    180    182      1
   208    182    183      1
   209    183    242      1
   210    183    632      1
   211    184    185      1
   212    185    186      1
   213    187    189      1
   214    188    190      1
   215    188    255      1
   216    189    190      1
   217    189    583      1
   218    190    191      1
   219    194    199      1
   220    195    198      1
   221    196    197      1
   222    197    198      1
   223    197    262      1
   224    198    200      1
   225    199    201      1
   226    200    202      1
   227    200    590      1
   228    202    203      1
   229    202    266      1
   230    203    206      1
   231    204    207      1
   232    205    206      1
   233    206    209      1
   234    207    599      1
   235    209    210      1
   236    209    271      1
   237    210    211      1
   238    210    212      1
   239    212    213      1
   240    212    214      1
   241    212    276      1
   242    213    275      1
   243    213    281      1
   244    215    216      1
   245    215    218      1
   246    217    220      1
   247    217    283      1
   248    218    221      1
   249    219    614      1
   250    220    223      1
   251    222    223      1
   252    222    224      1
   253    223    225      1
   254    224    226      1
   255    225    228      1
   256    225    290      1
   257    226    231      1
   258    227    230      1
   259    227    291      1
   260    228    231      1
   261    228    294      1
   262    229    233      1
   263    230    232      1
   264    230    621      1
   265    231    232      1
   266    232    233      1
   267    232    234      1
   268    235    236      1
   269    235    294      1
   270    237    243      1
   271    237    304      1
   272    237    626      1
   273    238    239      1
   274    239    240      1
   275    239    241      1
   276    241    242      1
   277    241    243      1
   278    243    244      1
   279    244    246      1
   280    244    305      1
   281    245    247      1
   282    246    248      1
   283    247    248      1
   284    248    251      1
   285    249    250      1
   286    249    632      1
   287    250    252      1
   288    250    636      1
   289    251    252      1
   290    251    254      1
   291    252    255      1
   292    253    636      1
   293    254    257      1
   294    256   2532      1
   295    256   2540      1
   296    257    259      1
   297    257    312      1
   298    258    259      1
   299    259    261      1
   300    260   2540      1
   301    263    264      1
   302    263    649      1
   303    264    320      1
   304    264    705      1
   305    265    267      1
   306    265    320      1
   307    267    269      1
   308    268    269      1
   309    268    271      1
   310    269    272      1
   311    270    658      1
   312    272    274      1
   313    272    328      1
   314    273    274      1
   315    274    277      1
   316    277    280      1
   317    277    332      1
   318    278    279      1
   319    279    280      1
   320    282    283      1
   321    282    285      1
   322    284    286      1
   323    284    287      1
   324    285    667      1
   325    285    668      1
   326    288    341      1
   327    288    673      1
   328    289    290      1
   329    290    291      1
   330    291    292      1
   331    292    293      1
   332    292    673      1
   333    292    678      1
   334    295    296      1
   335    295    298      1
   336    295    348      1
   337    297    300      1
   338    298    299      1
   339    298    301      1
   340    299    302      1
   341    299    350      1
   342    300    301      1
   343    300    304      1
   344    301    303      1
   345    304    305      1
   346    304    684      1
   347    306    692      1
   348    307    308      1
   349    308    310      1
   350    309    313      1
   351    310    312      1
   352    311    314      1
   353    312    314      1
   354    313    365      1
   355    313    701      1
   356    313    753      1
   357    314    315      1
   358    315    317      1
   359    315    318      1
   360    316    319      1
   361    316    371      1
   362    318    319      1
   363    318    322      1
   364    319    321      1
   365    320    322      1
   366    321    326      1
   367    322    324      1
   368    322    325      1
   369    323    324      1
   370    324    327      1
   371    324    710      1
   372    326    329      1
   373    327    331      1
   374    327    711      1
   375    329    330      1
   376    330    331      1
   377    330    377      1
   378    331    333      1
   379    333    334      1
   380    333    335      1
   381    334    713      1
   382    334    717      1
   383    335    336      1
   384    336    384      1
   385    338    340      1
   386    339    343      1
   387    340    342      1
   388    340    344      1
   389    341    343      1
   390    341    668      1
   391    343    726      1
   392    346    727      1
   393    346    730      1
   394    347    348      1
   395    348    350      1
   396    349    352      1
   397    351    352      1
   398    352    354      1
   399    353    734      1
   400    354    355      1
   401    354    356      1
   402    355    742      1
   403    356    357      1
   404    356   2622      1
   405    357    358      1
   406    357   2628      1
   407    359    744      1
   408    360    361      1
   409    360    362      1
   410    360    752      1
   411    362    364      1
   412    362    365      1
   413    363    364      1
   414    363    366      1
   415    364    368      1
   416    365    370      1
   417    366    367      1
   418    367    368      1
   419    368    370      1
   420    369    758      1
   421    370    371      1
   422    372    760      1
   423    373    374      1
   424    374    375      1
   425    374    377      1
   426    376    378      1
   427    376    380      1
   428    376    765      1
   429    377    378      1
   430    378    381      1
   431    379    380      1
   432    380    382      1
   433    381    383      1
   434    382    383      1
   435    382    385      1
   436    383    768      1
   437    386    387      1
   438    388    390      1
   439    388    445      1
   440    389    390      1
   441    390    392      1
   442    390    442      1
   443    392    393      1
   444    392    396      1
   445    393    394      1
   446    394    395      1
   447    396    397      1
   448    396    449      1
   449    397    398      1
   450    398    399      1
   451    399    400      1
   452    399    401      1
   453    401    403      1
   454    402    784      1
   455    403    783      1
   456    404    405      1
   457    405    406      1
   458    405    458      1
   459    406    407      1
   460    407    408      1
   461    408    409      1
   462    408    790      1
   463    409    796      1
   464    410    412      1
   465    410    467      1
   466    411    413      1
   467    413    416      1
   468    414    415      1
   469    414    416      1
   470    414    749      1
   471    415    799      1
   472    415    805      1
   473    416    418      1
   474    417    418      1
   475    417    477      1
   476    418    419      1
   477    418    420      1
   478    419    421      1
   479    419    805      1
   480    421    422      1
   481    421    812      1
   482    423    812      1
   483    424    426      1
   484    424    429      1
   485    425    430      1
   486    425    488      1
   487    425    814      1
   488    426    427      1
   489    427    490      1
   490    428    431      1
   491    429    431      1
   492    430    432      1
   493    430    820      1
   494    433    435      1
   495    434    825      1
   496    435    436      1
   497    436    437      1
   498    437    438      1
   499    437    439      1
   500    442    771      1
   501    443    444      1
   502    443    509      1
   503    444    446      1
   504    444    508      1
   505    445    447      1
   506    447    448      1
   507    450    451      1
   508    451    452      1
   509    451    453      1
   510    453    454      1
   511    453    456      1
   512    454    899      1
   513    454    907      1
   514    455    456      1
   515    456    459      1
   516    458    461      1
   517    459    460      1
   518    459    462      1
   519    460    855      1
   520    460    907      1
   521    461    462      1
   522    461    464      1
   523    462    465      1
   524    463    466      1
   525    463    525      1
   526    464    467      1
   527    465    468      1
   528    465    856      1
   529    467    468      1
   530    468    469      1
   531    470    471      1
   532    470    472      1
   533    471    473      1
   534    472    475      1
   535    472    476      1
   536    473    474      1
   537    473    475      1
   538    475    477      1
   539    476    863      1
   540    476    865      1
   541    477    479      1
   542    478    481      1
   543    478    482      1
   544    480    481      1
   545    480    484      1
   546    480    865      1
   547    481    483      1
   548    482    485      1
   549    483    485      1
   550    483    486      1
   551    484    486      1
   552    484    870      1
   553    485    489      1
   554    486    488      1
   555    487    539      1
   556    488    490      1
   557    489    491      1
   558    490    491      1
   559    491    492      1
   560    493    544      1
   561    494    496      1
   562    495    497      1
   563    496    498      1
   564    496    499      1
   565    497    500      1
   566    497    880      1
   567    498    544      1
   568    498    549      1
   569    501    502      1
   570    501    880      1
   571    501    884      1
   572    502    503      1
   573    504    507      1
   574    505    506      1
   575    505    509      1
   576    506    890      1
   577    507    510      1
   578    507    556      1
   579    509    511      1
   580    510    512      1
   581    511    513      1
   582    512    514      1
   583    513    514      1
   584    513    894      1
   585    514    515      1
   586    515    516      1
   587    516    561      1
   588    516    563      1
   589    517    518      1
   590    517    519      1
   591    519    521      1
   592    520    563      1
   593    520    569      1
   594    520    901      1
   595    521    522      1
   596    521    523      1
   597    524    525      1
   598    526    527      1
   599    527    961      1
   600    528    529      1
   601    528    580      1
   602    528    966      1
   603    530    532      1
   604    531    532      1
   605    532    533      1
   606    533    534      1
   607    533    582      1
   608    534    536      1
   609    534    587      1
   610    535    536      1
   611    536    538      1
   612    537    539      1
   613    538    592      1
   614    538    922      1
   615    539    540      1
   616    541    542      1
   617    541    597      1
   618    542    543      1
   619    542    545      1
   620    544    545      1
   621    545    929      1
   622    546    548      1
   623    547    549      1
   624    548    551      1
   625    548    606      1
   626    549    550      1
   627    549    553      1
   628    551    552      1
   629    551    554      1
   630    552    608      1
   631    552    886      1
   632    553    554      1
   633    555    936      1
   634    558    559      1
   635    559    560      1
   636    560    618      1
   637    562    564      1
   638    563    566      1
   639    564    565      1
   640    564    566      1
   641    565    568      1
   642    565    620      1
   643    566    567      1
   644    568    570      1
   645    568    625      1
   646    569    572      1
   647    570    571      1
   648    570    573      1
   649    572    959      1
   650    573    575      1
   651    573    630      1
   652    574    575      1
   653    575    576      1
   654    576    577      1
   655    576    578      1
   656    577    635      1
   657    579    580      1
   658    580    582      1
   659    581    637      1
   660    583    584      1
   661    584    585      1
   662    584    642      1
   663    586    587      1
   664    587    589      1
   665    588    651      1
   666    589    591      1
   667    589    592      1
   668    590    591      1
   669    592    594      1
   670    593    594      1
   671    594    597      1
   672    594    977      1
   673    595    598      1
   674    595    654      1
   675    595    978      1
   676    596    599      1
   677    597    601      1
   678    598    600      1
   679    598    660      1
   680    599    602      1
   681    600    601      1
   682    600    605      1
   683    601    604      1
   684    602    606      1
   685    603    605      1
   686    603    660      1
   687    605    607      1
   688    606    607      1
   689    607    609      1
   690    609    610      1
   691    609    611      1
   692    612    614      1
   693    613    615      1
   694    613    994      1
   695    614    615      1
   696    614    669      1
   697    615    616      1
   698    617    618      1
   699    618    620      1
   700    619   1004      1
   701    620    621      1
   702    621    624      1
   703    622    676      1
   704    623    625      1
   705    624    625      1
   706    624    626      1
   707    625    627      1
   708    628    685      1
   709    629    630      1
   710    629    631      1
   711    630    632      1
   712    631    633      1
   713    631    685      1
   714    633    634      1
   715    633    690      1
   716    634    636      1
   717    634    693      1
   718    635    637      1
   719    636    638      1
   720    637    639      1
   721    637    642      1
   722    638    639      1
   723    638    640      1
   724    639    641      1
   725    640    646      1
   726    640    695      1
   727    641    643      1
   728    641    644      1
   729    642    643      1
   730    643   1029      1
   731    645    647      1
   732    646    647      1
   733    646    703      1
   734    647    649      1
   735    648    649      1
   736    650    651      1
   737    651    654      1
   738    652    653      1
   739    652   1082      1
   740    652   1087      1
   741    653    655      1
   742    653    707      1
   743    654    656      1
   744    655    656      1
   745    656    657      1
   746    657    658      1
   747    657    660      1
   748    658    659      1
   749    659    711      1
   750    661   1045      1
   751    661   1093      1
   752    662    712      1
   753    663    665      1
   754    664    666      1
   755    664   1048      1
   756    665    666      1
   757    667    669      1
   758    667    670      1
   759    668    719      1
   760    669    670      1
   761    670    671      1
   762    671    997      1
   763    672    673      1
   764    674    675      1
   765    674    997      1
   766    674   1058      1
   767    675    676      1
   768    676    678      1
   769    677    732      1
   770    678    679      1
   771    679    681      1
   772    679    732      1
   773    680    682      1
   774    680   1009      1
   775    681    683      1
   776    682    683      1
   777    682    685      1
   778    683    686      1
   779    685    686      1
   780    686    687      1
   781    686    688      1
   782    689    691      1
   783    690    694      1
   784    691    692      1
   785    691    693      1
   786    692    748      1
   787    693    695      1
   788    694   1027      1
   789    694   1070      1
   790    695    696      1
   791    697    753      1
   792    698    699      1
   793    698   1074      1
   794    699    700      1
   795    700    702      1
   796    700    703      1
   797    702    704      1
   798    702    753      1
   799    703    705      1
   800    704    706      1
   801    704   1141      1
   802    705    707      1
   803    706    708      1
   804    706   1085      1
   805    707    709      1
   806    708    709      1
   807    708    762      1
   808    709    710      1
   809    711    713      1
   810    712    713      1
   811    712    714      1
   812    714    715      1
   813    715    716      1
   814    715   1093      1
   815    716   1158      1
   816    718    721      1
   817    719    720      1
   818    721    722      1
   819    722    724      1
   820    722    725      1
   821    723    725      1
   822    724    727      1
   823    725    728      1
   824    726    727      1
   825    726    729      1
   826    731    732      1
   827    732    734      1
   828    733    736      1
   829    733   1113      1
   830    734    737      1
   831    736    737      1
   832    736    738      1
   833    737    740      1
   834    738    739      1
   835    738   1119      1
   836    740    741      1
   837    740    742      1
   838    741    743      1
   839    742    744      1
   840    743    745      1
   841    746    747      1
   842    746    750      1
   843    746   1125      1
   844    750    751      1
   845    750   1126      1
   846    750   1130      1
   847    753    757      1
   848    754    755      1
   849    755    756      1
   850    755   1141      1
   851    756    757      1
   852    757    758      1
   853    758    759      1
   854    760    761      1
   855    760    765      1
   856    761    762      1
   857    762    763      1
   858    764    765      1
   859    766    767      1
   860    770   1156      1
   861    770   1158      1
   862    771    836      1
   863    772    836      1
   864    773    775      1
   865    774   1103      1
   866    775    776      1
   867    775    778      1
   868    777    778      1
   869    778    779      1
   870    779    780      1
   871    780    783      1
   872    781    844      1
   873    781   1169      1
   874    781   1172      1
   875    782    785      1
   876    783    784      1
   877    784    787      1
   878    785    787      1
   879    785    850      1
   880    787    788      1
   881    788    790      1
   882    789    791      1
   883    789   1174      1
   884    790    793      1
   885    791    792      1
   886    791    794      1
   887    794    797      1
   888    794   1182      1
   889    795    798      1
   890    796    799      1
   891    797    801      1
   892    798    799      1
   893    798    800      1
   894    800    803      1
   895    800    860      1
   896    801    802      1
   897    803    804      1
   898    803    806      1
   899    804    807      1
   900    804   1188      1
   901    805    806      1
   902    806    809      1
   903    808    809      1
   904    809    810      1
   905    809    813      1
   906    811    812      1
   907    812    813      1
   908    813    814      1
   909    814    870      1
   910    815    818      1
   911    816    818      1
   912    817    820      1
   913    818    819      1
   914    818    822      1
   915    819   1526      1
   916    820    821      1
   917    820    823      1
   918    822    823      1
   919    822    824      1
   920    823    825      1
   921    824    826      1
   922    824   1205      1
   923    825    827      1
   924    826    829      1
   925    827    828      1
   926    827    830      1
   927    829    834      1
   928    830    832      1
   929    830    833      1
   930    833    834      1
   931    835    889      1
   932    836    837      1
   933    837    838      1
   934    838    840      1
   935    839    840      1
   936    839    841      1
   937    840    842      1
   938    841   1272      1
   939    842    843      1
   940    842    844      1
   941    842    845      1
   942    845    846      1
   943    845    847      1
   944    846    903      1
   945    848    849      1
   946    849    850      1
   947    849    852      1
   948    850    853      1
   949    850   1172      1
   950    851    852      1
   951    852   1229      1
   952    854    855      1
   953    855    856      1
   954    856    857      1
   955    857    859      1
   956    858    859      1
   957    859    914      1
   958    861    914      1
   959    861   1295      1
   960    862    864      1
   961    864    865      1
   962    864    867      1
   963    866    867      1
   964    867    868      1
   965    867    869      1
   966    868    918      1
   967    868   1241      1
   968    869    870      1
   969    869    871      1
   970    872   1245      1
   971    873    874      1
   972    874    876      1
   973    874    923      1
   974    875    877      1
   975    876    877      1
   976    876    926      1
   977    878    880      1
   978    879    881      1
   979    881    882      1
   980    881    930      1
   981    882    934      1
   982    882   1257      1
   983    883   1256      1
   984    884    885      1
   985    887    888      1
   986    888    890      1
   987    888    891      1
   988    890    892      1
   989    891    938      1
   990    891   1266      1
   991    892    894      1
   992    893   1266      1
   993    893   1272      1
   994    894    896      1
   995    895    897      1
   996    895    944      1
   997    896    897      1
   998    896    899      1
   999    897    901      1
  1000    898    900      1
  1001    900    903      1
  1002    900    904      1
  1003    900   1277      1
  1004    901    905      1
  1005    902    905      1
  1006    903   1282      1
  1007    904    906      1
  1008    904   1281      1
  1009    905    906      1
  1010    905    908      1
  1011    906    951      1
  1012    907    908      1
  1013    908    909      1
  1014    910    912      1
  1015    911    912      1
  1016    911   1289      1
  1017    911   1295      1
  1018    912    914      1
  1019    913   1293      1
  1020    915    916      1
  1021    915    967      1
  1022    916    917      1
  1023    917    919      1
  1024    918    921      1
  1025    919    920      1
  1026    919    921      1
  1027    919   1305      1
  1028    921    923      1
  1029    923    925      1
  1030    924    925      1
  1031    925    927      1
  1032    927    928      1
  1033    927   1312      1
  1034    928    930      1
  1035    928   1250      1
  1036    929    931      1
  1037    930    931      1
  1038    931    932      1
  1039    933    988      1
  1040    933   1319      1
  1041    933   1324      1
  1042    935    988      1
  1043    936    937      1
  1044    936    993      1
  1045    938   1329      1
  1046    939    941      1
  1047    939    993      1
  1048    940    941      1
  1049    941    942      1
  1050    942    945      1
  1051    942   1332      1
  1052    943    944      1
  1053    944    946      1
  1054    945    947      1
  1055    945   1335      1
  1056    946    947      1
  1057    946    949      1
  1058    947    948      1
  1059    950    953      1
  1060    951    952      1
  1061    951    954      1
  1062    953    956      1
  1063    953   1012      1
  1064    954    957      1
  1065    954   1341      1
  1066    955   1012      1
  1067    956    957      1
  1068    956    958      1
  1069    957    960      1
  1070    957   1343      1
  1071    958    959      1
  1072    959    961      1
  1073    961    964      1
  1074    962    963      1
  1075    962   1020      1
  1076    962   1025      1
  1077    963    964      1
  1078    964    966      1
  1079    965    967      1
  1080    966    967      1
  1081    968    969      1
  1082    969    970      1
  1083    969    972      1
  1084    970   1029      1
  1085    971    972      1
  1086    971   1355      1
  1087    972    973      1
  1088    973    974      1
  1089    973    975      1
  1090    973    976      1
  1091    979    980      1
  1092    979   1365      1
  1093    979   1369      1
  1094    980    981      1
  1095    980   1039      1
  1096    981    983      1
  1097    981   1046      1
  1098    982    983      1
  1099    982   1319      1
  1100    982   1369      1
  1101    983    984      1
  1102    983    985      1
  1103    986    989      1
  1104    986   1046      1
  1105    986   1048      1
  1106    987    988      1
  1107    990   1433      1
  1108    991    992      1
  1109    992    993      1
  1110    992    994      1
  1111    994    995      1
  1112    995    996      1
  1113    995    997      1
  1114    998   1000      1
  1115    999   1000      1
  1116   1000   1002      1
  1117   1000   1003      1
  1118   1001   1002      1
  1119   1001   1442      1
  1120   1002   1007      1
  1121   1003   1004      1
  1122   1003   1009      1
  1123   1004   1008      1
  1124   1005   1011      1
  1125   1006   1010      1
  1126   1007   1010      1
  1127   1007   1011      1
  1128   1008   1012      1
  1129   1009   1011      1
  1130   1010   1013      1
  1131   1010   1387      1
  1132   1011   1014      1
  1133   1013   1016      1
  1134   1013   1344      1
  1135   1014   1017      1
  1136   1014   1065      1
  1137   1015   1017      1
  1138   1016   1017      1
  1139   1016   1391      1
  1140   1017   1019      1
  1141   1018   1020      1
  1142   1019   1021      1
  1143   1019   1022      1
  1144   1020   1021      1
  1145   1021   1024      1
  1146   1022   1023      1
  1147   1023   1398      1
  1148   1024   1025      1
  1149   1024   1026      1
  1150   1026   1027      1
  1151   1027   1074      1
  1152   1028   1074      1
  1153   1029   1030      1
  1154   1031   1032      1
  1155   1031   1033      1
  1156   1031   1408      1
  1157   1032   1080      1
  1158   1032   1409      1
  1159   1033   1034      1
  1160   1033   1035      1
  1161   1035   1037      1
  1162   1035   1413      1
  1163   1036   1038      1
  1164   1037   1038      1
  1165   1037   1039      1
  1166   1038   1040      1
  1167   1039   1364      1
  1168   1040   1041      1
  1169   1040   1042      1
  1170   1041   1044      1
  1171   1042   1046      1
  1172   1042   1047      1
  1173   1043   1044      1
  1174   1043   1422      1
  1175   1044   1095      1
  1176   1045   1047      1
  1177   1047   1048      1
  1178   1049   1050      1
  1179   1050   1053      1
  1180   1051   1052      1
  1181   1052   1053      1
  1182   1052   1055      1
  1183   1052   1435      1
  1184   1053   1104      1
  1185   1054   1056      1
  1186   1055   1056      1
  1187   1055   1057      1
  1188   1056   1442      1
  1189   1057   1105      1
  1190   1057   1443      1
  1191   1058   1059      1
  1192   1059   1060      1
  1193   1059   1061      1
  1194   1060   1062      1
  1195   1060   1109      1
  1196   1063   1064      1
  1197   1064   1066      1
  1198   1064   1118      1
  1199   1064   1119      1
  1200   1065   1067      1
  1201   1066   1067      1
  1202   1066   1068      1
  1203   1067   1069      1
  1204   1068   1124      1
  1205   1068   1125      1
  1206   1071   1072      1
  1207   1072   1075      1
  1208   1072   1398      1
  1209   1073   1076      1
  1210   1075   1459      1
  1211   1076   1077      1
  1212   1076   1137      1
  1213   1077   1081      1
  1214   1078   1082      1
  1215   1079   1080      1
  1216   1079   1081      1
  1217   1079   1459      1
  1218   1079   1463      1
  1219   1080   1083      1
  1220   1081   1084      1
  1221   1082   1083      1
  1222   1084   1085      1
  1223   1084   1086      1
  1224   1086   1088      1
  1225   1086   1090      1
  1226   1088   1089      1
  1227   1089   1091      1
  1228   1089   1419      1
  1229   1089   1471      1
  1230   1090   1091      1
  1231   1091   1092      1
  1232   1092   1094      1
  1233   1092   1095      1
  1234   1093   1094      1
  1235   1094   1098      1
  1236   1095   1099      1
  1237   1095   1474      1
  1238   1096   1097      1
  1239   1097   1098      1
  1240   1097   1153      1
  1241   1098   1099      1
  1242   1098   1100      1
  1243   1099   1101      1
  1244   1099   1477      1
  1245   1102   1104      1
  1246   1104   1105      1
  1247   1105   1109      1
  1248   1106   1107      1
  1249   1107   1110      1
  1250   1108   1109      1
  1251   1110   1113      1
  1252   1111   1113      1
  1253   1112   1115      1
  1254   1114   1493      1
  1255   1115   1117      1
  1256   1115   1495      1
  1257   1116   1118      1
  1258   1117   1120      1
  1259   1118   1122      1
  1260   1119   1121      1
  1261   1122   1123      1
  1262   1123   1124      1
  1263   1123   1506      1
  1264   1124   1127      1
  1265   1126   1128      1
  1266   1127   1129      1
  1267   1127   1509      1
  1268   1128   1129      1
  1269   1128   1131      1
  1270   1129   1130      1
  1271   1129   1132      1
  1272   1130   1133      1
  1273   1131   1134      1
  1274   1133   1137      1
  1275   1134   1135      1
  1276   1134   1136      1
  1277   1136   1140      1
  1278   1137   1141      1
  1279   1138   1139      1
  1280   1139   1140      1
  1281   1139   1519      1
  1282   1140   1142      1
  1283   1142   1525      1
  1284   1143   1462      1
  1285   1144   1146      1
  1286   1145   1146      1
  1287   1146   1148      1
  1288   1147   1149      1
  1289   1148   1150      1
  1290   1149   1151      1
  1291   1150   1151      1
  1292   1150   1152      1
  1293   1151   1534      1
  1294   1153   1155      1
  1295   1154   1155      1
  1296   1154   1535      1
  1297   1155   1156      1
  1298   1156   1157      1
  1299   1159   1160      1
  1300   1159   1590      1
  1301   1160   1161      1
  1302   1161   1163      1
  1303   1162   1163      1
  1304   1163   1164      1
  1305   1163   1165      1
  1306   1166   1546      1
  1307   1167   1169      1
  1308   1168   1170      1
  1309   1169   1171      1
  1310   1169   1220      1
  1311   1172   1228      1
  1312   1173   1559      1
  1313   1174   1175      1
  1314   1176   1177      1
  1315   1176   1178      1
  1316   1176   1228      1
  1317   1177   1560      1
  1318   1179   1182      1
  1319   1180   1181      1
  1320   1180   1183      1
  1321   1181   1185      1
  1322   1182   1186      1
  1323   1182   1233      1
  1324   1183   1184      1
  1325   1183   1565      1
  1326   1184   1187      1
  1327   1184   1236      1
  1328   1186   1187      1
  1329   1186   1188      1
  1330   1187   1189      1
  1331   1189   1190      1
  1332   1189   1191      1
  1333   1190   1567      1
  1334   1190   1571      1
  1335   1192   1571      1
  1336   1193   1194      1
  1337   1193   1195      1
  1338   1193   1242      1
  1339   1195   1196      1
  1340   1195   1197      1
  1341   1195   1575      1
  1342   1198   1200      1
  1343   1198   1526      1
  1344   1199   1200      1
  1345   1200   1202      1
  1346   1201   1203      1
  1347   1202   1205      1
  1348   1203   1204      1
  1349   1203   1586      1
  1350   1205   1208      1
  1351   1206   1209      1
  1352   1207   1211      1
  1353   1208   1210      1
  1354   1208   1211      1
  1355   1209   1210      1
  1356   1209   1259      1
  1357   1210   1212      1
  1358   1212   1589      1
  1359   1213   1214      1
  1360   1213   1215      1
  1361   1214   1263      1
  1362   1215   1216      1
  1363   1215   1217      1
  1364   1217   1218      1
  1365   1217   1267      1
  1366   1218   1219      1
  1367   1219   1221      1
  1368   1219   1274      1
  1369   1220   1223      1
  1370   1221   1223      1
  1371   1221   1224      1
  1372   1222   1224      1
  1373   1222   1275      1
  1374   1222   1607      1
  1375   1223   1226      1
  1376   1224   1225      1
  1377   1225   1227      1
  1378   1225   1609      1
  1379   1226   1227      1
  1380   1226   1228      1
  1381   1227   1611      1
  1382   1229   1230      1
  1383   1229   1282      1
  1384   1230   1231      1
  1385   1230   1286      1
  1386   1232   1233      1
  1387   1233   1234      1
  1388   1234   1235      1
  1389   1234   1236      1
  1390   1235   1295      1
  1391   1236   1237      1
  1392   1237   1620      1
  1393   1238   1298      1
  1394   1238   1620      1
  1395   1239   1240      1
  1396   1240   1241      1
  1397   1240   1300      1
  1398   1242   1243      1
  1399   1243   1244      1
  1400   1243   1245      1
  1401   1244   1247      1
  1402   1244   1304      1
  1403   1245   1246      1
  1404   1245   1248      1
  1405   1247   1249      1
  1406   1247   1627      1
  1407   1247   1679      1
  1408   1250   1251      1
  1409   1250   1314      1
  1410   1252   1254      1
  1411   1253   1256      1
  1412   1254   1255      1
  1413   1254   1258      1
  1414   1255   1260      1
  1415   1255   1320      1
  1416   1256   1257      1
  1417   1256   1259      1
  1418   1257   1260      1
  1419   1258   1259      1
  1420   1258   1261      1
  1421   1260   1323      1
  1422   1262   1264      1
  1423   1263   1264      1
  1424   1263   1267      1
  1425   1264   1265      1
  1426   1264   1268      1
  1427   1266   1268      1
  1428   1267   1269      1
  1429   1268   1270      1
  1430   1269   1271      1
  1431   1269   1646      1
  1432   1270   1271      1
  1433   1270   1273      1
  1434   1271   1274      1
  1435   1272   1274      1
  1436   1273   1335      1
  1437   1274   1276      1
  1438   1278   1279      1
  1439   1279   1280      1
  1440   1279   1281      1
  1441   1280   1284      1
  1442   1280   1652      1
  1443   1281   1341      1
  1444   1282   1283      1
  1445   1284   1285      1
  1446   1284   1657      1
  1447   1286   1288      1
  1448   1286   1289      1
  1449   1287   1288      1
  1450   1287   1614      1
  1451   1288   1290      1
  1452   1289   1291      1
  1453   1290   1291      1
  1454   1290   1292      1
  1455   1291   1293      1
  1456   1292   1346      1
  1457   1292   1664      1
  1458   1293   1296      1
  1459   1294   1295      1
  1460   1296   1297      1
  1461   1297   1349      1
  1462   1297   1351      1
  1463   1298   1299      1
  1464   1298   1300      1
  1465   1300   1301      1
  1466   1301   1303      1
  1467   1301   1304      1
  1468   1302   1303      1
  1469   1303   1305      1
  1470   1304   1306      1
  1471   1305   1307      1
  1472   1305   1360      1
  1473   1308   1309      1
  1474   1308   1680      1
  1475   1309   1310      1
  1476   1310   1311      1
  1477   1310   1312      1
  1478   1312   1314      1
  1479   1313   1314      1
  1480   1315   1317      1
  1481   1316   1318      1
  1482   1317   1319      1
  1483   1317   1321      1
  1484   1318   1320      1
  1485   1318   1321      1
  1486   1318   1692      1
  1487   1320   1636      1
  1488   1321   1322      1
  1489   1322   1323      1
  1490   1325   1327      1
  1491   1325   1328      1
  1492   1326   1328      1
  1493   1326   1374      1
  1494   1328   1331      1
  1495   1330   1703      1
  1496   1331   1332      1
  1497   1331   1333      1
  1498   1333   1334      1
  1499   1333   1703      1
  1500   1334   1336      1
  1501   1336   1385      1
  1502   1337   1338      1
  1503   1337   1340      1
  1504   1337   1385      1
  1505   1339   1340      1
  1506   1340   1342      1
  1507   1341   1342      1
  1508   1342   1343      1
  1509   1343   1344      1
  1510   1344   1390      1
  1511   1345   1347      1
  1512   1346   1347      1
  1513   1347   1348      1
  1514   1348   1722      1
  1515   1348   1723      1
  1516   1349   1666      1
  1517   1349   1730      1
  1518   1350   1402      1
  1519   1352   1357      1
  1520   1352   1405      1
  1521   1352   1406      1
  1522   1353   1355      1
  1523   1354   1356      1
  1524   1354   1730      1
  1525   1355   1360      1
  1526   1356   1359      1
  1527   1357   1358      1
  1528   1357   1412      1
  1529   1359   1360      1
  1530   1359   1361      1
  1531   1360   1362      1
  1532   1361   1363      1
  1533   1363   1366      1
  1534   1363   1367      1
  1535   1364   1365      1
  1536   1364   1413      1
  1537   1365   1366      1
  1538   1366   1367      1
  1539   1368   1369      1
  1540   1370   1372      1
  1541   1370   1746      1
  1542   1371   1372      1
  1543   1371   1427      1
  1544   1373   1374      1
  1545   1374   1375      1
  1546   1375   1378      1
  1547   1375   1379      1
  1548   1376   1377      1
  1549   1376   1378      1
  1550   1376   1436      1
  1551   1377   1753      1
  1552   1377   1812      1
  1553   1380   1382      1
  1554   1381   1384      1
  1555   1381   1441      1
  1556   1381   1442      1
  1557   1381   1444      1
  1558   1382   1383      1
  1559   1382   1384      1
  1560   1383   1763      1
  1561   1384   1386      1
  1562   1385   1386      1
  1563   1386   1387      1
  1564   1387   1388      1
  1565   1388   1448      1
  1566   1389   1392      1
  1567   1390   1391      1
  1568   1390   1392      1
  1569   1391   1394      1
  1570   1392   1395      1
  1571   1393   1776      1
  1572   1395   1397      1
  1573   1395   1722      1
  1574   1396   1397      1
  1575   1397   1399      1
  1576   1398   1401      1
  1577   1399   1400      1
  1578   1399   1402      1
  1579   1400   1401      1
  1580   1401   1404      1
  1581   1402   1405      1
  1582   1402   1784      1
  1583   1403   1406      1
  1584   1405   1407      1
  1585   1406   1408      1
  1586   1407   1410      1
  1587   1407   1788      1
  1588   1408   1412      1
  1589   1410   1411      1
  1590   1410   1793      1
  1591   1412   1413      1
  1592   1414   1416      1
  1593   1415   1418      1
  1594   1416   1417      1
  1595   1416   1418      1
  1596   1417   1796      1
  1597   1417   1801      1
  1598   1418   1470      1
  1599   1420   1422      1
  1600   1421   1423      1
  1601   1421   1424      1
  1602   1421   1805      1
  1603   1422   1425      1
  1604   1423   1427      1
  1605   1423   1746      1
  1606   1424   1425      1
  1607   1424   1426      1
  1608   1425   1427      1
  1609   1426   1428      1
  1610   1426   1475      1
  1611   1428   1430      1
  1612   1429   1431      1
  1613   1432   1435      1
  1614   1433   1434      1
  1615   1434   1435      1
  1616   1434   1436      1
  1617   1435   1437      1
  1618   1436   1438      1
  1619   1437   1438      1
  1620   1437   1486      1
  1621   1438   1440      1
  1622   1439   1440      1
  1623   1443   1446      1
  1624   1444   1445      1
  1625   1444   1446      1
  1626   1444   1448      1
  1627   1446   1447      1
  1628   1447   1449      1
  1629   1447   1493      1
  1630   1448   1449      1
  1631   1449   1450      1
  1632   1451   1830      1
  1633   1452   1454      1
  1634   1453   1778      1
  1635   1454   1455      1
  1636   1454   1837      1
  1637   1455   1456      1
  1638   1456   1458      1
  1639   1456   1460      1
  1640   1457   1519      1
  1641   1458   1845      1
  1642   1458   1846      1
  1643   1459   1460      1
  1644   1460   1461      1
  1645   1461   1465      1
  1646   1462   1519      1
  1647   1462   1522      1
  1648   1464   1465      1
  1649   1465   1466      1
  1650   1466   1467      1
  1651   1466   1854      1
  1652   1467   1469      1
  1653   1467   1527      1
  1654   1468   1470      1
  1655   1469   1471      1
  1656   1469   1531      1
  1657   1470   1471      1
  1658   1472   1473      1
  1659   1472   1531      1
  1660   1472   1533      1
  1661   1473   1476      1
  1662   1475   1860      1
  1663   1475   1865      1
  1664   1476   1478      1
  1665   1476   1536      1
  1666   1478   1865      1
  1667   1481   1483      1
  1668   1482   1484      1
  1669   1482   1867      1
  1670   1483   1485      1
  1671   1483   1486      1
  1672   1484   1485      1
  1673   1484   1873      1
  1674   1485   1487      1
  1675   1486   1488      1
  1676   1487   1488      1
  1677   1487   1489      1
  1678   1488   1490      1
  1679   1491   1494      1
  1680   1492   1497      1
  1681   1493   1496      1
  1682   1494   1498      1
  1683   1494   1881      1
  1684   1495   1496      1
  1685   1496   1499      1
  1686   1497   1499      1
  1687   1498   1499      1
  1688   1498   1884      1
  1689   1499   1500      1
  1690   1501   1504      1
  1691   1502   1884      1
  1692   1503   1504      1
  1693   1503   1507      1
  1694   1503   1886      1
  1695   1505   1506      1
  1696   1506   1509      1
  1697   1507   1508      1
  1698   1507   1889      1
  1699   1507   1890      1
  1700   1509   1510      1
  1701   1511   1513      1
  1702   1512   1514      1
  1703   1513   1514      1
  1704   1513   1516      1
  1705   1514   1517      1
  1706   1516   1518      1
  1707   1516   1845      1
  1708   1517   1520      1
  1709   1518   1521      1
  1710   1518   1901      1
  1711   1520   1521      1
  1712   1520   1523      1
  1713   1521   1524      1
  1714   1522   1524      1
  1715   1524   1527      1
  1716   1527   1528      1
  1717   1528   1910      1
  1718   1529   1910      1
  1719   1530   1531      1
  1720   1532   1913      1
  1721   1533   1534      1
  1722   1533   1536      1
  1723   1534   1535      1
  1724   1535   1538      1
  1725   1536   1540      1
  1726   1537   1539      1
  1727   1538   1541      1
  1728   1539   1541      1
  1729   1542   1543      1
  1730   1542   1590      1
  1731   1542   1592      1
  1732   1543   1544      1
  1733   1544   1545      1
  1734   1545   1547      1
  1735   1547   1548      1
  1736   1547   1927      1
  1737   1548   1549      1
  1738   1548   1878      1
  1739   1549   1554      1
  1740   1549   1931      1
  1741   1550   1553      1
  1742   1550   1606      1
  1743   1551   1552      1
  1744   1552   1554      1
  1745   1553   1555      1
  1746   1554   1556      1
  1747   1555   1556      1
  1748   1555   1557      1
  1749   1556   1936      1
  1750   1558   1559      1
  1751   1559   1560      1
  1752   1560   1562      1
  1753   1563   1566      1
  1754   1564   1566      1
  1755   1566   1891      1
  1756   1567   1569      1
  1757   1567   1621      1
  1758   1568   1569      1
  1759   1569   1570      1
  1760   1570   1571      1
  1761   1570   1572      1
  1762   1573   1574      1
  1763   1573   1624      1
  1764   1573   1955      1
  1765   1576   1578      1
  1766   1577   1578      1
  1767   1577   1905      1
  1768   1578   1579      1
  1769   1579   1582      1
  1770   1579   1583      1
  1771   1580   1582      1
  1772   1581   1961      1
  1773   1582   1584      1
  1774   1586   1587      1
  1775   1586   1632      1
  1776   1587   1588      1
  1777   1587   1589      1
  1778   1588   1635      1
  1779   1588   1966      1
  1780   1590   1591      1
  1781   1591   1593      1
  1782   1592   1595      1
  1783   1592   1596      1
  1784   1594   1597      1
  1785   1594   1642      1
  1786   1594   1644      1
  1787   1595   1922      1
  1788   1595   1976      1
  1789   1596   1597      1
  1790   1596   1599      1
  1791   1597   1600      1
  1792   1598   1599      1
  1793   1599   1601      1
  1794   1600   1602      1
  1795   1600   1979      1
  1796   1601   1602      1
  1797   1601   1603      1
  1798   1602   1604      1
  1799   1604   1606      1
  1800   1604   1981      1
  1801   1605   1650      1
  1802   1606   1984      1
  1803   1607   1609      1
  1804   1607   1650      1
  1805   1608   1650      1
  1806   1609   1612      1
  1807   1610   1612      1
  1808   1612   1613      1
  1809   1612   1614      1
  1810   1614   1661      1
  1811   1615   1616      1
  1812   1616   1617      1
  1813   1616   1618      1
  1814   1617   1661      1
  1815   1618   1994      1
  1816   1619   1620      1
  1817   1622   1623      1
  1818   1622   1671      1
  1819   1622   2006      1
  1820   1623   1624      1
  1821   1625   1628      1
  1822   1625   2011      1
  1823   1625   2012      1
  1824   1626   1627      1
  1825   1627   1628      1
  1826   1629   1630      1
  1827   1630   1631      1
  1828   1630   1632      1
  1829   1631   1636      1
  1830   1631   1685      1
  1831   1632   1633      1
  1832   1633   1634      1
  1833   1633   1635      1
  1834   1636   1638      1
  1835   1637   1638      1
  1836   1638   1639      1
  1837   1638   1640      1
  1838   1639   1696      1
  1839   1641   1642      1
  1840   1643   1700      1
  1841   1644   2030      1
  1842   1645   1647      1
  1843   1646   1648      1
  1844   1647   1649      1
  1845   1647   1709      1
  1846   1647   2034      1
  1847   1648   1649      1
  1848   1649   1651      1
  1849   1650   1651      1
  1850   1651   1653      1
  1851   1651   1654      1
  1852   1652   1655      1
  1853   1653   2039      1
  1854   1653   2043      1
  1855   1654   1655      1
  1856   1654   1656      1
  1857   1655   1657      1
  1858   1656   1658      1
  1859   1656   2043      1
  1860   1657   1660      1
  1861   1658   1659      1
  1862   1658   1660      1
  1863   1659   1720      1
  1864   1659   2044      1
  1865   1661   1662      1
  1866   1662   1665      1
  1867   1663   2049      1
  1868   1664   1665      1
  1869   1664   1666      1
  1870   1665   1667      1
  1871   1667   1668      1
  1872   1668   1669      1
  1873   1669   1671      1
  1874   1669   2056      1
  1875   1670   1671      1
  1876   1671   1674      1
  1877   1672   1675      1
  1878   1673   1674      1
  1879   1674   1675      1
  1880   1675   1677      1
  1881   1676   2116      1
  1882   1677   1679      1
  1883   1678   1682      1
  1884   1678   2064      1
  1885   1679   1683      1
  1886   1680   1681      1
  1887   1680   1738      1
  1888   1681   1683      1
  1889   1681   1684      1
  1890   1682   1684      1
  1891   1682   2069      1
  1892   1683   1685      1
  1893   1684   1689      1
  1894   1685   1686      1
  1895   1687   2073      1
  1896   1688   1690      1
  1897   1689   1690      1
  1898   1689   1691      1
  1899   1690   1692      1
  1900   1691   1743      1
  1901   1691   2074      1
  1902   1692   1695      1
  1903   1693   1694      1
  1904   1694   1696      1
  1905   1694   2076      1
  1906   1695   1697      1
  1907   1696   2081      1
  1908   1699   1701      1
  1909   1700   1701      1
  1910   1700   1702      1
  1911   1701   1704      1
  1912   1702   2031      1
  1913   1703   1704      1
  1914   1703   1705      1
  1915   1704   1706      1
  1916   1705   1756      1
  1917   1706   1707      1
  1918   1706   1708      1
  1919   1708   1709      1
  1920   1709   1711      1
  1921   1710   1763      1
  1922   1712   1714      1
  1923   1713   1714      1
  1924   1713   1763      1
  1925   1713   1768      1
  1926   1714   1716      1
  1927   1715   1716      1
  1928   1716   1717      1
  1929   1717   1718      1
  1930   1717   1719      1
  1931   1719   1720      1
  1932   1719   1721      1
  1933   1720   2102      1
  1934   1722   1724      1
  1935   1724   1726      1
  1936   1724   1782      1
  1937   1725   1727      1
  1938   1725   2104      1
  1939   1725   2108      1
  1940   1726   1727      1
  1941   1727   1728      1
  1942   1729   1730      1
  1943   1731   2114      1
  1944   1732   1734      1
  1945   1732   1790      1
  1946   1732   2114      1
  1947   1733   1736      1
  1948   1734   1736      1
  1949   1734   2119      1
  1950   1735   1737      1
  1951   1736   1737      1
  1952   1736   1739      1
  1953   1737   1738      1
  1954   1739   1740      1
  1955   1739   1799      1
  1956   1740   1742      1
  1957   1740   2124      1
  1958   1741   1742      1
  1959   1742   1743      1
  1960   1743   2126      1
  1961   1744   1746      1
  1962   1744   1748      1
  1963   1744   1806      1
  1964   1745   1748      1
  1965   1747   1748      1
  1966   1747   2126      1
  1967   1747   2131      1
  1968   1748   1749      1
  1969   1749   1750      1
  1970   1750   2131      1
  1971   1752   1753      1
  1972   1753   1755      1
  1973   1754   1758      1
  1974   1755   1756      1
  1975   1755   1757      1
  1976   1756   1759      1
  1977   1757   1760      1
  1978   1757   1815      1
  1979   1758   1759      1
  1980   1758   2144      1
  1981   1759   1760      1
  1982   1759   1761      1
  1983   1760   1762      1
  1984   1762   1765      1
  1985   1762   1817      1
  1986   1764   1766      1
  1987   1765   1767      1
  1988   1765   1823      1
  1989   1766   1767      1
  1990   1766   1768      1
  1991   1767   1770      1
  1992   1768   1769      1
  1993   1770   1771      1
  1994   1770   1772      1
  1995   1772   1773      1
  1996   1772   1774      1
  1997   1773   1774      1
  1998   1773   1775      1
  1999   1774   1776      1
  2000   1775   2155      1
  2001   1776   1777      1
  2002   1777   1778      1
  2003   1778   1836      1
  2004   1779   1780      1
  2005   1779   1781      1
  2006   1779   1782      1
  2007   1780   1783      1
  2008   1780   1836      1
  2009   1781   1783      1
  2010   1781   2157      1
  2011   1782   1784      1
  2012   1783   2215      1
  2013   1784   1786      1
  2014   1785   1786      1
  2015   1786   1788      1
  2016   1787   2162      1
  2017   1788   1791      1
  2018   1789   1790      1
  2019   1790   2163      1
  2020   1792   1795      1
  2021   1793   1796      1
  2022   1794   1797      1
  2023   1795   1798      1
  2024   1795   1852      1
  2025   1795   1855      1
  2026   1796   1798      1
  2027   1797   1798      1
  2028   1797   1799      1
  2029   1797   2171      1
  2030   1798   1800      1
  2031   1799   1802      1
  2032   1802   1804      1
  2033   1802   1806      1
  2034   1803   1860      1
  2035   1804   2173      1
  2036   1804   2179      1
  2037   1807   1808      1
  2038   1808   1809      1
  2039   1808   2179      1
  2040   1809   1810      1
  2041   1812   1813      1
  2042   1813   1814      1
  2043   1813   1815      1
  2044   1815   1817      1
  2045   1816   1818      1
  2046   1817   1818      1
  2047   1817   2142      1
  2048   1818   1821      1
  2049   1818   2198      1
  2050   1819   1820      1
  2051   1819   1877      1
  2052   1819   1880      1
  2053   1821   1822      1
  2054   1821   1823      1
  2055   1821   1824      1
  2056   1823   2205      1
  2057   1824   1825      1
  2058   1824   2203      1
  2059   1825   1826      1
  2060   1825   1827      1
  2061   1826   1881      1
  2062   1826   1882      1
  2063   1827   1828      1
  2064   1827   1829      1
  2065   1829   1830      1
  2066   1830   1831      1
  2067   1831   1832      1
  2068   1831   1833      1
  2069   1832   1834      1
  2070   1834   1837      1
  2071   1834   1889      1
  2072   1835   1838      1
  2073   1835   2212      1
  2074   1836   1840      1
  2075   1837   1841      1
  2076   1838   1839      1
  2077   1838   1895      1
  2078   1839   1841      1
  2079   1839   1842      1
  2080   1840   1843      1
  2081   1841   1845      1
  2082   1842   1844      1
  2083   1843   1846      1
  2084   1844   1847      1
  2085   1844   2218      1
  2086   1846   1848      1
  2087   1846   1850      1
  2088   1847   1849      1
  2089   1847   1850      1
  2090   1847   2228      1
  2091   1850   1851      1
  2092   1850   1852      1
  2093   1852   1854      1
  2094   1853   1855      1
  2095   1853   2228      1
  2096   1853   2231      1
  2097   1854   1856      1
  2098   1855   2230      1
  2099   1856   1858      1
  2100   1857   1858      1
  2101   1858   1859      1
  2102   1859   1860      1
  2103   1859   1861      1
  2104   1862   1863      1
  2105   1862   1864      1
  2106   1862   2239      1
  2107   1864   1918      1
  2108   1865   1866      1
  2109   1867   1869      1
  2110   1868   1870      1
  2111   1869   1870      1
  2112   1869   1874      1
  2113   1870   1871      1
  2114   1871   1872      1
  2115   1871   2249      1
  2116   1873   1874      1
  2117   1874   1876      1
  2118   1875   1876      1
  2119   1880   1881      1
  2120   1882   1883      1
  2121   1882   1885      1
  2122   1884   1885      1
  2123   1885   1887      1
  2124   1887   1888      1
  2125   1887   1889      1
  2126   1888   2210      1
  2127   1889   1892      1
  2128   1893   1896      1
  2129   1893   2272      1
  2130   1894   1897      1
  2131   1896   1897      1
  2132   1896   1898      1
  2133   1897   1899      1
  2134   1898   1900      1
  2135   1898   2274      1
  2136   1899   1900      1
  2137   1899   1901      1
  2138   1900   1902      1
  2139   1901   1903      1
  2140   1902   1903      1
  2141   1902   2280      1
  2142   1903   1904      1
  2143   1906   1907      1
  2144   1906   1908      1
  2145   1908   1909      1
  2146   1908   2287      1
  2147   1909   2289      1
  2148   1910   1911      1
  2149   1911   1912      1
  2150   1911   1913      1
  2151   1912   1915      1
  2152   1913   1917      1
  2153   1914   2293      1
  2154   1916   2295      1
  2155   1917   1918      1
  2156   1918   1919      1
  2157   1919   1920      1
  2158   1919   2297      1
  2159   1921   1924      1
  2160   1922   1924      1
  2161   1923   1925      1
  2162   1924   1926      1
  2163   1925   2305      1
  2164   1927   1929      1
  2165   1928   1929      1
  2166   1928   1980      1
  2167   1929   1931      1
  2168   1931   1933      1
  2169   1933   1935      1
  2170   1933   1936      1
  2171   1934   1935      1
  2172   1934   2311      1
  2173   1934   2312      1
  2174   1935   1937      1
  2175   1936   1939      1
  2176   1937   1940      1
  2177   1937   1988      1
  2178   1938   1939      1
  2179   1938   1941      1
  2180   1939   1942      1
  2181   1940   1941      1
  2182   1940   2314      1
  2183   1941   1944      1
  2184   1943   1994      1
  2185   1944   2318      1
  2186   1945   1948      1
  2187   1947   2000      1
  2188   1947   2367      1
  2189   1948   1950      1
  2190   1948   1952      1
  2191   1949   2319      1
  2192   1951   1952      1
  2193   1952   1953      1
  2194   1953   1954      1
  2195   1953   1955      1
  2196   1954   1956      1
  2197   1955   1959      1
  2198   1956   1959      1
  2199   1957   1958      1
  2200   1957   2007      1
  2201   1957   2325      1
  2202   1957   2378      1
  2203   1959   1960      1
  2204   1960   1961      1
  2205   1961   2011      1
  2206   1962   1963      1
  2207   1963   2332      1
  2208   1964   2289      1
  2209   1965   1969      1
  2210   1966   1968      1
  2211   1967   1969      1
  2212   1968   1969      1
  2213   1968   2024      1
  2214   1969   1971      1
  2215   1970   1971      1
  2216   1970   2340      1
  2217   1972   2025      1
  2218   1972   2026      1
  2219   1974   1975      1
  2220   1974   2346      1
  2221   1975   2032      1
  2222   1977   1978      1
  2223   1978   1980      1
  2224   1978   2353      1
  2225   1979   1981      1
  2226   1981   1982      1
  2227   1982   1983      1
  2228   1982   1984      1
  2229   1983   2041      1
  2230   1984   1985      1
  2231   1985   1989      1
  2232   1986   1987      1
  2233   1987   1988      1
  2234   1987   2362      1
  2235   1988   1989      1
  2236   1989   1990      1
  2237   1991   2045      1
  2238   1992   1993      1
  2239   1993   1996      1
  2240   1993   2045      1
  2241   1994   1997      1
  2242   1995   1998      1
  2243   1996   1999      1
  2244   1996   2364      1
  2245   1997   1998      1
  2246   1997   2000      1
  2247   1998   2001      1
  2248   2001   2002      1
  2249   2001   2003      1
  2250   2004   2005      1
  2251   2005   2007      1
  2252   2005   2008      1
  2253   2006   2008      1
  2254   2006   2058      1
  2255   2008   2009      1
  2256   2008   2010      1
  2257   2011   2012      1
  2258   2013   2014      1
  2259   2013   2380      1
  2260   2014   2067      1
  2261   2015   2016      1
  2262   2015   2017      1
  2263   2015   2067      1
  2264   2016   2020      1
  2265   2016   2385      1
  2266   2017   2021      1
  2267   2017   2073      1
  2268   2018   2020      1
  2269   2019   2020      1
  2270   2020   2022      1
  2271   2022   2023      1
  2272   2022   2024      1
  2273   2023   2026      1
  2274   2024   2025      1
  2275   2029   2030      1
  2276   2030   2031      1
  2277   2031   2033      1
  2278   2031   2034      1
  2279   2032   2035      1
  2280   2033   2037      1
  2281   2033   2084      1
  2282   2034   2036      1
  2283   2035   2038      1
  2284   2036   2037      1
  2285   2036   2039      1
  2286   2038   2041      1
  2287   2038   2403      1
  2288   2040   2092      1
  2289   2040   2401      1
  2290   2040   2406      1
  2291   2041   2042      1
  2292   2042   2408      1
  2293   2045   2047      1
  2294   2046   2048      1
  2295   2046   2051      1
  2296   2046   2100      1
  2297   2047   2049      1
  2298   2048   2050      1
  2299   2049   2050      1
  2300   2050   2104      1
  2301   2051   2052      1
  2302   2051   2419      1
  2303   2052   2053      1
  2304   2052   2476      1
  2305   2053   2054      1
  2306   2054   2055      1
  2307   2055   2056      1
  2308   2055   2057      1
  2309   2056   2058      1
  2310   2057   2060      1
  2311   2057   2112      1
  2312   2058   2059      1
  2313   2060   2062      1
  2314   2060   2116      1
  2315   2061   2062      1
  2316   2061   2117      1
  2317   2061   2433      1
  2318   2062   2064      1
  2319   2063   2064      1
  2320   2064   2066      1
  2321   2065   2068      1
  2322   2065   2435      1
  2323   2065   2437      1
  2324   2066   2068      1
  2325   2066   2069      1
  2326   2067   2068      1
  2327   2068   2071      1
  2328   2069   2070      1
  2329   2072   2073      1
  2330   2074   2075      1
  2331   2074   2076      1
  2332   2075   2077      1
  2333   2076   2079      1
  2334   2077   2078      1
  2335   2077   2079      1
  2336   2078   2450      1
  2337   2079   2080      1
  2338   2080   2081      1
  2339   2082   2084      1
  2340   2083   2085      1
  2341   2083   2135      1
  2342   2084   2085      1
  2343   2085   2086      1
  2344   2087   2089      1
  2345   2088   2090      1
  2346   2089   2090      1
  2347   2089   2091      1
  2348   2090   2093      1
  2349   2091   2092      1
  2350   2091   2094      1
  2351   2092   2465      1
  2352   2093   2096      1
  2353   2093   2150      1
  2354   2095   2096      1
  2355   2096   2099      1
  2356   2097   2098      1
  2357   2098   2100      1
  2358   2098   2468      1
  2359   2099   2101      1
  2360   2099   2154      1
  2361   2101   2102      1
  2362   2102   2104      1
  2363   2103   2105      1
  2364   2103   2525      1
  2365   2105   2106      1
  2366   2105   2107      1
  2367   2107   2156      1
  2368   2109   2158      1
  2369   2109   2479      1
  2370   2110   2111      1
  2371   2110   2158      1
  2372   2110   2161      1
  2373   2111   2112      1
  2374   2111   2113      1
  2375   2112   2114      1
  2376   2114   2116      1
  2377   2115   2118      1
  2378   2115   2484      1
  2379   2116   2119      1
  2380   2117   2120      1
  2381   2117   2486      1
  2382   2118   2120      1
  2383   2118   2170      1
  2384   2119   2121      1
  2385   2120   2121      1
  2386   2122   2123      1
  2387   2122   2170      1
  2388   2123   2124      1
  2389   2123   2173      1
  2390   2124   2126      1
  2391   2125   2493      1
  2392   2126   2127      1
  2393   2128   2499      1
  2394   2129   2498      1
  2395   2130   2131      1
  2396   2130   2184      1
  2397   2132   2133      1
  2398   2132   2135      1
  2399   2133   2134      1
  2400   2133   2136      1
  2401   2134   2508      1
  2402   2136   2137      1
  2403   2136   2138      1
  2404   2136   2139      1
  2405   2140   2508      1
  2406   2141   2193      1
  2407   2142   2143      1
  2408   2142   2192      1
  2409   2142   2197      1
  2410   2143   2144      1
  2411   2143   2145      1
  2412   2146   2148      1
  2413   2147   2149      1
  2414   2147   2150      1
  2415   2148   2149      1
  2416   2148   2201      1
  2417   2148   2204      1
  2418   2149   2151      1
  2419   2150   2152      1
  2420   2151   2152      1
  2421   2152   2154      1
  2422   2153   2521      1
  2423   2156   2157      1
  2424   2158   2159      1
  2425   2159   2160      1
  2426   2159   2538      1
  2427   2160   2161      1
  2428   2160   2164      1
  2429   2161   2163      1
  2430   2162   2163      1
  2431   2162   2164      1
  2432   2164   2165      1
  2433   2165   2166      1
  2434   2165   2167      1
  2435   2165   2222      1
  2436   2167   2168      1
  2437   2167   2544      1
  2438   2168   2169      1
  2439   2169   2171      1
  2440   2170   2549      1
  2441   2171   2172      1
  2442   2171   2173      1
  2443   2173   2174      1
  2444   2175   2178      1
  2445   2176   2177      1
  2446   2176   2237      1
  2447   2176   2554      1
  2448   2177   2178      1
  2449   2178   2180      1
  2450   2179   2180      1
  2451   2180   2182      1
  2452   2181   2183      1
  2453   2181   2558      1
  2454   2181   2603      1
  2455   2182   2184      1
  2456   2182   2186      1
  2457   2183   2186      1
  2458   2183   2241      1
  2459   2185   2503      1
  2460   2187   2249      1
  2461   2188   2244      1
  2462   2189   2193      1
  2463   2189   2564      1
  2464   2189   2565      1
  2465   2190   2194      1
  2466   2190   2565      1
  2467   2191   2195      1
  2468   2191   2249      1
  2469   2193   2196      1
  2470   2194   2195      1
  2471   2194   2196      1
  2472   2194   2199      1
  2473   2195   2198      1
  2474   2196   2197      1
  2475   2197   2198      1
  2476   2200   2202      1
  2477   2202   2207      1
  2478   2202   2574      1
  2479   2203   2205      1
  2480   2203   2206      1
  2481   2204   2205      1
  2482   2204   2207      1
  2483   2206   2208      1
  2484   2206   2260      1
  2485   2207   2208      1
  2486   2208   2263      1
  2487   2209   2210      1
  2488   2210   2212      1
  2489   2211   2213      1
  2490   2212   2213      1
  2491   2214   2582      1
  2492   2215   2218      1
  2493   2216   2219      1
  2494   2217   2537      1
  2495   2218   2219      1
  2496   2219   2220      1
  2497   2220   2221      1
  2498   2220   2223      1
  2499   2221   2224      1
  2500   2221   2587      1
  2501   2223   2225      1
  2502   2223   2227      1
  2503   2224   2227      1
  2504   2224   2590      1
  2505   2225   2228      1
  2506   2225   2280      1
  2507   2226   2227      1
  2508   2227   2229      1
  2509   2231   2236      1
  2510   2231   2286      1
  2511   2232   2233      1
  2512   2233   2234      1
  2513   2233   2236      1
  2514   2234   2235      1
  2515   2234   2237      1
  2516   2236   2238      1
  2517   2236   2286      1
  2518   2237   2596      1
  2519   2240   2241      1
  2520   2240   2242      1
  2521   2241   2244      1
  2522   2242   2243      1
  2523   2242   2296      1
  2524   2243   2244      1
  2525   2245   2246      1
  2526   2246   2247      1
  2527   2246   2248      1
  2528   2246   2250      1
  2529   2250   2251      1
  2530   2251   2253      1
  2531   2251   2254      1
  2532   2252   2253      1
  2533   2253   2255      1
  2534   2254   2257      1
  2535   2255   2257      1
  2536   2255   2258      1
  2537   2256   2258      1
  2538   2257   2261      1
  2539   2258   2260      1
  2540   2260   2262      1
  2541   2261   2262      1
  2542   2261   2619      1
  2543   2262   2265      1
  2544   2264   2265      1
  2545   2265   2266      1
  2546   2265   2267      1
  2547   2267   2268      1
  2548   2268   2623      1
  2549   2268   2627      1
  2550   2270   2271      1
  2551   2270   2273      1
  2552   2273   2635      1
  2553   2274   2275      1
  2554   2274   2277      1
  2555   2276   2278      1
  2556   2277   2278      1
  2557   2277   2279      1
  2558   2278   2281      1
  2559   2279   2280      1
  2560   2279   2282      1
  2561   2281   2282      1
  2562   2282   2283      1
  2563   2282   2284      1
  2564   2285   2288      1
  2565   2286   2287      1
  2566   2288   2290      1
  2567   2288   2649      1
  2568   2289   2291      1
  2569   2290   2291      1
  2570   2290   2292      1
  2571   2291   2293      1
  2572   2292   2294      1
  2573   2292   2655      1
  2574   2293   2295      1
  2575   2294   2296      1
  2576   2295   2297      1
  2577   2296   2298      1
  2578   2297   2298      1
  2579   2299   2300      1
  2580   2300   2301      1
  2581   2301   2304      1
  2582   2302   2303      1
  2583   2302   2350      1
  2584   2303   2304      1
  2585   2304   2305      1
  2586   2305   2306      1
  2587   2306   2309      1
  2588   2307   2308      1
  2589   2307   2354      1
  2590   2308   2310      1
  2591   2309   2310      1
  2592   2313   2316      1
  2593   2315   2316      1
  2594   2316   2317      1
  2595   2317   2365      1
  2596   2317   2366      1
  2597   2318   2319      1
  2598   2319   2321      1
  2599   2320   2367      1
  2600   2321   2322      1
  2601   2322   2323      1
  2602   2323   2324      1
  2603   2324   2326      1
  2604   2325   2326      1
  2605   2325   2373      1
  2606   2326   2327      1
  2607   2327   2329      1
  2608   2329   2331      1
  2609   2329   2332      1
  2610   2330   2648      1
  2611   2332   2333      1
  2612   2332   2378      1
  2613   2334   2335      1
  2614   2335   2336      1
  2615   2336   2338      1
  2616   2336   2393      1
  2617   2337   2339      1
  2618   2337   2340      1
  2619   2338   2341      1
  2620   2338   2393      1
  2621   2339   2343      1
  2622   2340   2341      1
  2623   2341   2342      1
  2624   2345   2346      1
  2625   2346   2348      1
  2626   2346   2349      1
  2627   2347   2349      1
  2628   2349   2351      1
  2629   2350   2352      1
  2630   2354   2355      1
  2631   2354   2358      1
  2632   2355   2356      1
  2633   2356   2357      1
  2634   2357   2405      1
  2635   2359   2361      1
  2636   2360   2361      1
  2637   2361   2363      1
  2638   2362   2363      1
  2639   2363   2414      1
  2640   2364   2417      1
  2641   2365   2366      1
  2642   2366   2367      1
  2643   2367   2372      1
  2644   2370   2372      1
  2645   2371   2372      1
  2646   2372   2373      1
  2647   2374   2375      1
  2648   2375   2377      1
  2649   2377   2379      1
  2650   2378   2380      1
  2651   2379   2380      1
  2652   2379   2382      1
  2653   2382   2383      1
  2654   2384   2385      1
  2655   2385   2387      1
  2656   2387   2389      1
  2657   2387   2391      1
  2658   2388   2390      1
  2659   2388   2391      1
  2660   2388   2442      1
  2661   2391   2392      1
  2662   2395   2451      1
  2663   2396   2398      1
  2664   2398   2399      1
  2665   2398   2456      1
  2666   2400   2402      1
  2667   2402   2404      1
  2668   2402   2405      1
  2669   2405   2407      1
  2670   2406   2408      1
  2671   2408   2409      1
  2672   2409   2410      1
  2673   2409   2412      1
  2674   2411   2413      1
  2675   2412   2414      1
  2676   2413   2416      1
  2677   2414   2417      1
  2678   2416   2418      1
  2679   2416   2473      1
  2680   2417   2420      1
  2681   2418   2420      1
  2682   2419   2420      1
  2683   2420   2421      1
  2684   2422   2426      1
  2685   2423   2424      1
  2686   2424   2425      1
  2687   2424   2427      1
  2688   2426   2427      1
  2689   2426   2429      1
  2690   2427   2481      1
  2691   2430   2432      1
  2692   2431   2432      1
  2693   2431   2433      1
  2694   2432   2434      1
  2695   2433   2435      1
  2696   2434   2435      1
  2697   2436   2438      1
  2698   2437   2438      1
  2699   2437   2440      1
  2700   2438   2442      1
  2701   2439   2441      1
  2702   2439   2492      1
  2703   2440   2444      1
  2704   2440   2445      1
  2705   2441   2446      1
  2706   2442   2445      1
  2707   2444   2446      1
  2708   2444   2498      1
  2709   2445   2447      1
  2710   2446   2448      1
  2711   2448   2449      1
  2712   2448   2500      1
  2713   2449   2450      1
  2714   2449   2451      1
  2715   2452   2454      1
  2716   2453   2455      1
  2717   2454   2456      1
  2718   2454   2457      1
  2719   2455   2457      1
  2720   2455   2509      1
  2721   2457   2459      1
  2722   2458   2460      1
  2723   2459   2460      1
  2724   2459   2461      1
  2725   2460   2462      1
  2726   2460   2510      1
  2727   2464   2465      1
  2728   2465   2466      1
  2729   2465   2468      1
  2730   2468   2469      1
  2731   2469   2470      1
  2732   2470   2521      1
  2733   2470   2525      1
  2734   2471   2472      1
  2735   2472   2473      1
  2736   2472   2474      1
  2737   2473   2475      1
  2738   2474   2531      1
  2739   2475   2476      1
  2740   2475   2478      1
  2741   2478   2479      1
  2742   2478   2480      1
  2743   2479   2480      1
  2744   2482   2485      1
  2745   2483   2484      1
  2746   2484   2487      1
  2747   2484   2542      1
  2748   2485   2487      1
  2749   2486   2488      1
  2750   2487   2488      1
  2751   2487   2545      1
  2752   2488   2489      1
  2753   2489   2491      1
  2754   2489   2549      1
  2755   2490   2492      1
  2756   2491   2493      1
  2757   2492   2493      1
  2758   2493   2498      1
  2759   2494   2495      1
  2760   2495   2496      1
  2761   2495   2497      1
  2762   2495   2555      1
  2763   2497   2498      1
  2764   2497   2499      1
  2765   2499   2556      1
  2766   2500   2502      1
  2767   2504   2564      1
  2768   2505   2506      1
  2769   2507   2569      1
  2770   2508   2509      1
  2771   2509   2510      1
  2772   2510   2512      1
  2773   2511   2512      1
  2774   2511   2569      1
  2775   2511   2571      1
  2776   2512   2513      1
  2777   2513   2514      1
  2778   2513   2515      1
  2779   2514   2517      1
  2780   2514   2571      1
  2781   2515   2516      1
  2782   2517   2518      1
  2783   2517   2576      1
  2784   2518   2519      1
  2785   2519   2521      1
  2786   2520   2576      1
  2787   2520   2577      1
  2788   2522   2523      1
  2789   2523   2524      1
  2790   2523   2526      1
  2791   2525   2529      1
  2792   2526   2527      1
  2793   2526   2528      1
  2794   2526   2577      1
  2795   2529   2530      1
  2796   2529   2531      1
  2797   2531   2532      1
  2798   2532   2535      1
  2799   2533   2534      1
  2800   2533   2535      1
  2801   2533   2536      1
  2802   2534   2583      1
  2803   2535   2539      1
  2804   2536   2537      1
  2805   2536   2584      1
  2806   2537   2538      1
  2807   2538   2541      1
  2808   2539   2540      1
  2809   2539   2541      1
  2810   2541   2542      1
  2811   2542   2543      1
  2812   2543   2546      1
  2813   2544   2547      1
  2814   2546   2547      1
  2815   2546   2548      1
  2816   2547   2594      1
  2817   2549   2550      1
  2818   2550   2551      1
  2819   2551   2552      1
  2820   2551   2554      1
  2821   2552   2553      1
  2822   2553   2555      1
  2823   2554   2557      1
  2824   2555   2556      1
  2825   2556   2557      1
  2826   2557   2558      1
  2827   2559   2602      1
  2828   2561   2563      1
  2829   2561   2564      1
  2830   2562   2563      1
  2831   2562   2609      1
  2832   2563   2565      1
  2833   2566   2567      1
  2834   2566   2609      1
  2835   2566   2611      1
  2836   2567   2570      1
  2837   2568   2570      1
  2838   2569   2570      1
  2839   2571   2573      1
  2840   2572   2573      1
  2841   2574   2616      1
  2842   2577   2579      1
  2843   2578   2624      1
  2844   2578   2629      1
  2845   2580   2581      1
  2846   2581   2582      1
  2847   2581   2629      1
  2848   2582   2633      1
  2849   2583   2584      1
  2850   2584   2588      1
  2851   2585   2642      1
  2852   2586   2587      1
  2853   2586   2642      1
  2854   2590   2591      1
  2855   2591   2645      1
  2856   2592   2594      1
  2857   2593   2594      1
  2858   2594   2596      1
  2859   2595   2645      1
  2860   2595   2650      1
  2861   2596   2598      1
  2862   2597   2598      1
  2863   2598   2599      1
  2864   2600   2601      1
  2865   2601   2602      1
  2866   2602   2604      1
  2867   2604   2605      1
  2868   2606   2607      1
  2869   2607   2608      1
  2870   2608   2609      1
  2871   2610   2611      1
  2872   2610   2612      1
  2873   2611   2613      1
  2874   2613   2616      1
  2875   2615   2617      1
  2876   2616   2618      1
  2877   2617   2618      1
  2878   2618   2620      1
  2879   2620   2624      1
  2880   2625   2626      1
  2881   2627   2630      1
  2882   2629   2632      1
  2883   2632   2633      1
  2884   2633   2639      1
  2885   2634   2638      1
  2886   2635   2636      1
  2887   2636   2637      1
  2888   2636   2639      1
  2889   2637   2640      1
  2890   2638   2639      1
  2891   2638   2640      1
  2892   2638   2642      1
  2893   2639   2641      1
  2894   2643   2644      1
  2895   2644   2645      1
  2896   2644   2647      1
  2897   2646   2649      1
  2898   2647   2648      1
  2899   2647   2650      1
  2900   2648   2651      1
  2901   2649   2652      1
  2902   2650   2653      1
  2903   2651   2654      1
  2904   2652   2653      1
  2905   2652   2655      1
  2906   2653   2656      1
  2907   2654   2657      1
  2908   2655   2659      1
  2909   2656   2658      1
  2910   2657   2659      1
  2911   2659   2660      1
  2912   2660   2662      1
  2913   2663   2664     du
  2914   2664   2665     du
  2915   2665   2666     du
  2916   2666   2663     du
  2917   2667   2668     du
  2918   2668   2669     du
  2919   2669   2670     du
  2920   2670   2667     du
  2921   2666   2670     du
  2922   2667   2663     du
  2923   2665   2669     du
  2924   2668   2664     du
