@<TRIPOS>MOLECULE
LAMMPS data file via write_data, version 29 Oct 2020, timestep = 100 > lmp2SYBYLmol2 v3.0 / 24 May 2023 w/remove_PBC_bonds=True
  2565 1684    0    0    0
SMALL
NO_CHARGES
****
Energy = 0

@<TRIPOS>ATOM
      1 C          -14.3155   -13.5586   -14.0652 C       0      f0     0.0047
      2 C          -14.0008   -12.2896   -14.6536 C      96     f96     0.0167
      3 C          -13.5370   -10.0739   -11.1756 C     145    f145     0.1061
      4 C          -12.8243   -10.1127   -14.7790 C      96     f96     0.0003
      5 C          -12.7065   -11.4286   -14.0593 C      96     f96    -0.0203
      6 H          -12.6611   -11.3701   -12.9440 H       0      f0     0.0415
      7 C          -11.4132   -12.0096   -14.6698 C       0      f0     0.0021
      8 C          -10.4967   -12.5580   -13.5762 C       0      f0    -0.0241
      9 H          -10.7518   -12.6021   -12.5049 H       0      f0     0.0188
     10 H          -10.4536   -13.3006   -10.6853 H       0      f0     0.0168
     11 C           -9.2494   -13.2274   -13.8201 C       0      f0    -0.0165
     12 H           -8.7246   -13.2443   -14.8837 H       0      f0     0.0424
     13 C           -9.0891   -11.0063   -10.8903 C       0      f0    -0.0109
     14 H           -9.0113   -10.7626   -12.0134 H       0      f0     0.0343
     15 C           -8.2762   -13.9851   -13.2370 C       0      f0    -0.0008
     16 H           -7.2881   -14.1043   -13.4480 H       0      f0     0.0490
     17 H           -6.1240   -13.6971   -11.8865 H       0      f0     0.0132
     18 C           -5.6232   -10.3721   -14.0917 C       0      f0     0.0010
     19 H           -5.5951   -11.5577   -12.4428 H       0      f0     0.0177
     20 C           -4.9404   -10.7332   -13.0605 C       0      f0    -0.0108
     21 H           -4.3680    13.9139   -11.5483 H       0      f0     0.0181
     22 C           -3.7327   -10.1447   -12.3619 C       0      f0     0.0022
     23 C           -3.2947   -11.0735   -11.5289 C       0      f0    -0.0112
     24 C            0.5112   -10.5509   -13.3376 C       5      f5    -0.0248
     25 H            1.2786   -11.0406   -12.7736 H       0      f0     0.0173
     26 C            2.6721   -13.8812   -14.8040 C       0      f0    -0.0373
     27 C            2.8192   -13.8297   -11.0257 C       0      f0    -0.0042
     28 C            3.5045   -10.6365   -14.1374 C       0      f0    -0.0109
     29 C            4.0746   -10.3697   -12.9853 C       0      f0     0.0184
     30 H            5.1146   -12.7740   -13.2778 H       0      f0     0.0220
     31 C            4.6718   -11.9211   -12.5964 C       0      f0    -0.0252
     32 C            5.2136   -12.4568   -11.5554 C       0      f0    -0.0026
     33 C            8.5958   -10.1735   -11.2747 C      42     f42     0.0061
     34 C            8.5856   -13.5118   -12.0814 C       0      f0    -0.0038
     35 C            8.8664   -12.5592   -13.4382 C       0      f0    -0.0231
     36 C            9.2198   -11.3358   -13.1917 C       0      f0     0.0110
     37 C            9.5262   -13.8305   -11.1782 C       0      f0    -0.0079
     38 H            9.3713   -13.1448   -14.1443 H       0      f0     0.0244
     39 C           12.0747   -14.1242   -13.8632 C       6      f6     0.0060
     40 C           12.3167   -12.9308   -12.9213 C       6      f6    -0.0053
     41 C           12.3249   -13.6735   -11.6586 C       6      f6     0.0186
     42 C           13.2162   -11.8385   -12.8471 C       0      f0     0.0799
     43 C           13.8320   -10.7910   -12.7893 C       0      f0    -0.0729
     44 C           14.4229   -10.3731   -11.1622 C     145    f145     0.1917
     45 C          -12.2750    -9.5782   -11.2610 C      22     f22    -0.0294
     46 C          -12.2102    -8.7700   -14.4987 C       0      f0    -0.0126
     47 C          -12.3371    -8.0591   -13.2503 C       0      f0    -0.0201
     48 H          -11.8908    -6.8892   -13.1515 H       0      f0     0.0216
     49 C          -11.8344    -8.2073   -11.8170 C      22     f22     0.0193
     50 C          -11.9790    -7.1587   -10.8834 C      22     f22    -0.0036
     51 C           -5.9324    -9.7260   -15.0606 C       0      f0     0.0312
     52 O           -4.7974    -6.9076   -15.1054 O      97     f97    -0.5058
     53 C           -3.4335    -7.0785   -14.5632 C      97     f97     0.2532
     54 C           -3.0511    -8.9284   -12.4097 C       5      f5     0.0036
     55 C           -2.9529    -8.4687   -10.9809 C       5      f5     0.0073
     56 C           -2.8381    -8.1986   -15.0414 C      97     f97    -0.0505
     57 C           -2.6579    -6.1570   -13.8233 C       0      f0    -0.0671
     58 C           -1.6515    -8.8344   -14.5058 C       5      f5     0.0038
     59 C           -1.8950    -9.2977   -13.1191 C       5      f5    -0.0028
     60 H           -1.5202    -6.4552   -13.9958 H       0      f0     0.0192
     61 C           -0.6719    -9.5853   -11.3435 C       5      f5    -0.0078
     62 C           -0.7704   -10.0293   -12.6289 C       5      f5    -0.0009
     63 H           -0.1009    -5.9592   -12.7416 H       0      f0     0.0373
     64 C            0.6011    -9.8114   -14.6024 C       5      f5    -0.0143
     65 C            1.6194    -6.9682   -13.2482 C       0      f0     0.0122
     66 C            2.3333    -8.7613   -11.9522 C       0      f0    -0.0302
     67 C            2.3388    -8.0343   -13.1777 C       0      f0     0.0411
     68 H            1.9247    -8.5835   -13.9429 H       0      f0     0.0127
     69 C            3.2664    -9.8260   -11.7703 C       0      f0    -0.0045
     70 O            4.9771    -7.4891   -12.4074 O      18     f18    -0.4664
     71 H            5.5160    -8.0422   -14.5415 H       0      f0     0.0028
     72 C            5.8104    -8.3536   -11.5922 C      18     f18     0.2792
     73 C            5.9557    -7.4088   -13.8083 C      18     f18     0.1578
     74 C            6.8482    -9.0076   -12.2445 C      42     f42    -0.0268
     75 C            7.0935    -8.3577   -13.4584 C      42     f42     0.0359
     76 C            7.4969    -9.6498   -11.1284 C      42     f42     0.0064
     77 O            7.8373    -6.5143   -12.0165 O       0      f0    -0.4780
     78 C            8.3278    -8.2443   -14.1520 C      42     f42     0.0109
     79 C            8.8923    -7.2647   -15.0928 C       0      f0     0.0012
     80 C            9.3815   -10.0268   -12.5268 C      42     f42     0.0085
     81 C            9.6632    -6.1341   -14.4726 C       0      f0     0.0088
     82 H            9.7593    -7.7234   -12.6042 H       0      f0     0.0677
     83 C            9.5140    -8.7923   -13.2661 C      42     f42    -0.0284
     84 H           10.5188    -9.2237   -13.8283 H       0      f0     0.0704
     85 H           11.6429    -6.7715   -11.5997 H       0      f0     0.0272
     86 C           12.3072    -6.1555   -11.7728 C      43     f43    -0.0239
     87 O           12.3918   -10.0154   -14.7147 O       0      f0    -0.5089
     88 C           12.7516    -6.0453   -13.1836 C      43     f43    -0.0021
     89 C           12.7686    -7.3689   -13.7219 C       0      f0     0.0202
     90 C           12.8379    -8.5166   -12.6949 C       0      f0    -0.0491
     91 H           12.9106    -8.3252   -11.5783 H       0      f0     0.0105
     92 C           13.2106    -7.3591   -15.0633 C       0      f0     0.0242
     93 C           13.3106    -9.7358   -13.4017 C       0      f0     0.2014
     94 C          -14.2319    -3.5734   -14.4049 C      98     f98    -0.0096
     95 H          -14.3457    -2.0405   -12.7548 H       0      f0     0.0235
     96 C          -14.1345    -4.2053   -13.0424 C      98     f98    -0.0010
     97 H          -13.1528    -5.7337   -12.9152 H       0      f0     0.0188
     98 H          -12.9609    -1.9666   -15.2709 H       0      f0     0.0212
     99 C          -12.5968    -4.7399   -13.0126 C       0      f0    -0.0366
    100 C          -12.3196    -4.6095   -11.5602 C       4      f4    -0.0046
    101 H          -11.6289    -4.4225   -13.4900 H       0      f0     0.0254
    102 C          -11.7027    -5.6406   -10.9422 C       4      f4     0.0035
    103 C          -10.2397    -2.4766   -12.7199 C       0      f0    -0.0087
    104 C           -9.2085    -3.2858   -13.2131 C       0      f0    -0.0013
    105 C           -8.9173    -3.4692   -14.7964 C      99     f99    -0.0133
    106 C           -8.1695    -3.9867   -12.4356 C       0      f0     0.0076
    107 H           -8.2009    -4.2350   -15.0755 H       0      f0     0.0355
    108 C           -6.8576    -3.6011   -12.9009 C       0      f0     0.0135
    109 C           -5.5837    -2.8623   -12.6377 C       0      f0    -0.0215
    110 H           -4.8726    -3.3685   -11.9101 H       0      f0     0.0253
    111 H           -4.1296    -4.8646   -13.9444 H       0      f0     0.0582
    112 C           -2.9535    -4.8654   -13.5610 C       0      f0    -0.0055
    113 C           -2.7229    -2.2635   -13.2219 C     100    f100     0.0052
    114 C           -2.1898    -3.7521   -12.9961 C       0      f0     0.0149
    115 C           -0.8140    -4.1795   -13.1919 C       0      f0     0.0168
    116 C            0.5971    -4.4290   -13.1763 C       0      f0     0.0232
    117 C            0.7987    -5.8748   -13.4311 C       0      f0    -0.0246
    118 C            1.1893    -2.3587   -14.1588 C       0      f0     0.0102
    119 C            1.6262    -3.6855   -13.7452 C       0      f0    -0.0055
    120 H            2.4113    -5.5024   -11.6462 H       0      f0     0.0591
    121 C            2.5929    -3.5716   -12.6806 C       0      f0     0.0222
    122 C            2.9975    -4.5665   -11.6932 C       0      f0     0.0033
    123 C            3.7089    -2.6445   -13.1741 C       0      f0    -0.0003
    124 C            5.2587    -5.5181    15.2250 C       0      f0    -0.0068
    125 C            5.5283    -2.3063   -11.2378 C      86     f86    -0.0243
    126 C            6.1515    -5.9178   -14.1684 C       0      f0     0.0415
    127 H            7.1709    -4.0083   -13.9201 H       0      f0     0.0173
    128 C            6.9035    -5.1032   -13.7412 C       0      f0    -0.0685
    129 C            7.8341    -5.3436   -12.6139 C       0      f0     0.3111
    130 H            9.2148    -3.3412   -12.5815 H       0      f0     0.0230
    131 C            8.3906    -2.2499    14.9809 C       0      f0    -0.0080
    132 C            9.0807    -4.4673   -12.4908 C       0      f0    -0.0763
    133 H            9.5614    -4.4183   -11.3238 H       0      f0     0.0372
    134 H           10.6791    -4.3281   -14.2300 H       0      f0     0.0195
    135 C            9.7877    -4.8807   -13.8370 C       0      f0    -0.0121
    136 H           12.2151    -5.1447    15.2730 H       0      f0     0.0155
    137 C           12.5832    -4.8422   -14.1788 C      43     f43    -0.0210
    138 C           12.6523    -2.3733   -14.6829 C       0      f0    -0.0041
    139 C           13.2200    -4.0062   -13.3772 C      98     f98     0.0088
    140 C           13.7901    -3.0257   -14.3124 C      98     f98    -0.0074
    141 H           13.5938    -2.5462   -11.4872 H       0      f0     0.0228
    142 C           14.2748    -4.3912   -12.1538 C      98     f98    -0.0060
    143 H          -14.0296    -0.2659   -15.1199 H       0      f0     0.0210
    144 C          -13.8320    -1.6476   -11.8897 C       0      f0    -0.0189
    145 C          -12.5393    -1.1145   -12.7783 C     101    f101    -0.0055
    146 C          -12.1866    -0.6152   -14.1395 C     101    f101    -0.0065
    147 C          -11.0078    -1.4098   -12.2162 C     101    f101    -0.0013
    148 C          -11.1509     0.4695   -13.7519 C     101    f101     0.0045
    149 C          -10.1315    -0.2299   -12.3934 C     101    f101    -0.0384
    150 H          -10.6172     0.3427   -11.5764 H       0      f0     0.0197
    151 C          -10.0478     0.8407   -14.6778 C      44     f44    -0.0063
    152 H           -9.1207     0.0174   -12.5058 H       0      f0     0.0216
    153 C           -8.5154    -1.8415   -14.9116 C      99     f99    -0.0014
    154 H           -7.2354    -0.5170   -12.5553 H       0      f0     0.0189
    155 C           -6.5224    -0.4643   -11.8220 C       0      f0    -0.0217
    156 C           -6.5613     0.7438   -10.9321 C       0      f0    -0.0143
    157 C           -5.6813    -1.5617   -11.6267 C       0      f0     0.0003
    158 C           -4.2092     1.8741   -14.9360 C      45     f45    -0.0069
    159 C           -3.1965    -1.7281   -14.3731 C     100    f100    -0.0008
    160 C           -2.9712    -0.1861   -14.1896 C     100    f100     0.0024
    161 C           -3.0056    -1.2497   -12.2690 C     100    f100     0.0185
    162 C           -3.0823     0.1072   -12.8193 C     100    f100    -0.0019
    163 C           -2.9368     1.5473   -12.2570 C      87     f87     0.0073
    164 H            0.6832     0.0351   -11.4574 H       0      f0     0.0488
    165 H            0.2775     1.7249   -12.3865 H       0      f0     0.0221
    166 C            0.7987     1.2364   -13.3051 C       0      f0    -0.0135
    167 C            1.0340     1.7907   -14.2208 C       0      f0     0.0039
    168 C            1.8219    -1.3322   -15.0851 C       0      f0     0.0027
    169 H            3.3639    -0.7468   -11.3548 H       0      f0     0.0182
    170 C            2.9729    -0.4083   -15.1208 C       0      f0    -0.0208
    171 C            4.1687    -1.1550   -15.1268 C       0      f0     0.0049
    172 H            4.7286     1.7198   -11.1313 H       0      f0     0.0161
    173 C            4.7203    -2.0262   -13.9362 C       0      f0    -0.0200
    174 H            4.4565    -1.8725   -11.6450 H       0      f0     0.0162
    175 H            5.5141    -1.7880   -13.2645 H       0      f0     0.0191
    176 H            6.4055     0.6907   -14.0137 H       0      f0     0.0191
    177 C            6.7245     1.6261   -14.1487 C       0      f0    -0.0188
    178 C            6.8914    -0.3999   -11.4351 C       0      f0    -0.0117
    179 C            7.1128     0.6971   -12.1567 C       0      f0    -0.0122
    180 C            7.4344     1.8504   -12.9439 C       0      f0     0.0026
    181 C            9.2989    -1.3992   -15.2009 C       0      f0    -0.0212
    182 H           10.0396    -0.4124   -11.8141 H       0      f0     0.0191
    183 C           10.2548    -1.5065   -14.0099 C       0      f0     0.0007
    184 C           10.7362    -0.8389   -12.7720 C       0      f0    -0.0162
    185 C           11.4749    -1.7148   -14.8720 C       0      f0    -0.0028
    186 C           11.8368    -1.2370   -12.1186 C       0      f0     0.0044
    187 C           13.1439    -1.6587   -11.9080 C       0      f0    -0.0181
    188 C           14.4043    -0.9075   -11.3403 C       0      f0    -0.0025
    189 C           14.5170     0.2879   -14.7764 C       0      f0    -0.0307
    190 H           14.4134     0.2229   -13.7026 H       0      f0     0.0258
    191 C          -14.2091     5.1302   -12.0880 C      46     f46     0.0080
    192 C          -14.1431     5.3463   -14.4230 C      46     f46     0.0037
    193 C          -13.8966     2.2836    15.1829 C       0      f0    -0.0010
    194 C          -12.8250     2.9176   -14.7912 C       0      f0    -0.0057
    195 C          -12.7292     5.2772   -11.8617 C      46     f46    -0.0099
    196 H          -12.3599     4.6605   -12.8666 H       0      f0     0.0191
    197 H          -11.5873     2.5619   -11.1640 H       0      f0     0.0227
    198 C          -11.9361     2.1332   -13.5189 C       0      f0    -0.0044
    199 C          -11.7094     5.9116   -14.8242 C       0      f0    -0.0039
    200 C          -11.6970     5.1504   -10.8272 C      10     f10    -0.0142
    201 C          -11.2009     3.5470   -11.2211 C       0      f0    -0.0205
    202 H          -10.9680     4.1192   -13.4320 H       0      f0     0.0205
    203 C          -10.7928     3.0281   -13.5692 C       0      f0    -0.0178
    204 C           -9.5897     2.4089   -14.2990 C       0      f0     0.0024
    205 C           -8.2705     2.2593   -14.3885 C       0      f0    -0.0019
    206 C           -7.8807     5.8306   -13.8520 C       0      f0    -0.0066
    207 C           -7.4934     3.0444   -11.5271 C      88     f88     0.0053
    208 C           -7.3967     4.5119   -13.7064 C       0      f0    -0.0004
    209 C           -6.8403     4.1389   -12.3074 C      88     f88    -0.0026
    210 C           -6.9256     2.3380   -14.4972 C      47     f47     0.0008
    211 C           -6.5748     3.7796   -14.8008 C      47     f47    -0.0073
    212 C           -6.2176     2.0811   -11.3344 C      88     f88    -0.0011
    213 C           -5.7829     4.7968   -12.0858 C      88     f88     0.0035
    214 C           -4.9204     2.8212   -11.0861 C      88     f88    -0.0002
    215 C           -4.8639     5.6454   -12.8219 C       0      f0    -0.0043
    216 H           -4.8549     3.9699   -15.0545 H       0      f0     0.0227
    217 C           -3.7974     4.4232   -15.1190 C       0      f0    -0.0137
    218 C           -3.5599     2.9806   -14.2480 C      45     f45    -0.0029
    219 C           -3.5415     2.0513   -11.0293 C      87     f87    -0.0188
    220 C           -3.1952     5.8090   -14.7511 C       0      f0     0.0032
    221 C           -2.8115     2.6734   -13.1522 C      87     f87     0.0011
    222 C           -1.9017     4.4452   -11.1481 C      87     f87    -0.0034
    223 C           -1.9766     4.1142   -12.5456 C      87     f87     0.0013
    224 H           -0.8263     6.8687   -12.8135 H       0      f0     0.0224
    225 C           -0.9563     4.5782   -13.3986 C       0      f0    -0.0045
    226 C            0.4138     4.4931   -13.7705 C       0      f0    -0.0003
    227 C            0.7681     3.9423   -15.0203 C       0      f0    -0.0033
    228 C            1.5404     5.4883   -13.3270 C       0      f0    -0.0221
    229 C            1.7148     4.8389   -11.0923 C       0      f0    -0.0049
    230 C            2.1969     5.6345   -12.0703 C       0      f0     0.0013
    231 H            3.4695     4.2520   -13.8621 H       0      f0     0.0240
    232 H            4.3860     3.8020   -11.3252 H       0      f0     0.0226
    233 C            3.9835     4.4989   -14.8575 C       0      f0    -0.0425
    234 C            4.9275     4.2203   -12.0963 C      48     f48    -0.0238
    235 C            4.8006     5.7909   -12.0746 C      48     f48     0.0001
    236 C            6.2884     3.9639   -11.9272 C      48     f48    -0.0102
    237 H            6.4448     3.1020   -11.1534 H       0      f0     0.0181
    238 H            7.3349     3.4241    15.0534 H       0      f0     0.0219
    239 C            7.1796     4.3324   -13.0341 C      48     f48    -0.0003
    240 C            7.7664     5.5894   -13.2474 C      48     f48    -0.0020
    241 C            8.1156     3.1917   -13.2271 C       0      f0    -0.0008
    242 C            8.5417     6.0735   -14.5373 C       0      f0     0.0028
    243 C            9.2970     3.1613   -14.0689 C       0      f0     0.0002
    244 C            9.9601     5.9186   -14.8293 C       0      f0    -0.0064
    245 C           10.4271     3.3203   -14.7168 C     102    f102     0.0020
    246 C           10.7292     4.6927   -15.1791 C     102    f102    -0.0004
    247 C           11.0746     4.8653   -11.3291 C       0      f0    -0.0025
    248 C           11.3156     5.9915   -11.7642 C       0      f0    -0.0020
    249 H           13.6003     4.5705   -13.4654 H       0      f0     0.0255
    250 C           14.4982     5.0615   -13.3124 C      46     f46    -0.0234
    251 H          -14.5005     8.8135   -11.3719 H       0      f0     0.0480
    252 C          -13.7382     9.9061   -13.3580 C       0      f0    -0.0077
    253 C          -12.8272     6.3664   -14.3636 C      46     f46    -0.0083
    254 C          -12.4964     9.3933   -15.2324 C       0      f0    -0.0091
    255 C          -12.6997     7.5092   -13.2607 C      46     f46    -0.0038
    256 C          -12.4849     6.8722   -11.9556 C      46     f46    -0.0027
    257 C          -11.9896     8.7055   -13.7678 C       0      f0    -0.0030
    258 C          -11.9896     7.5403   -10.9051 C       0      f0    -0.0058
    259 C          -11.5685     9.6635   -12.6571 C       0      f0    -0.0031
    260 H          -10.2161     7.1707   -10.9655 H       0      f0     0.0171
    261 C           -9.6011    10.0308   -13.9989 C       0      f0    -0.0007
    262 C           -8.4239     7.0826   -14.1001 C       0      f0    -0.0067
    263 C           -8.2047     9.5044   -14.2239 C       0      f0    -0.0083
    264 C           -8.1582     7.9930   -11.1903 C       0      f0     0.0006
    265 H           -8.1725    10.0730    15.2424 H       0      f0     0.0453
    266 C           -7.8719     8.2423   -13.4259 C       0      f0    -0.0014
    267 C           -7.2219     8.4042   -12.0946 C       0      f0    -0.0030
    268 C           -5.8536     8.7744   -11.4045 C       0      f0    -0.0022
    269 C           -5.4319     7.3131   -14.6331 C       0      f0    -0.0155
    270 C           -4.4190     6.4483   -13.9799 C       0      f0    -0.0048
    271 H           -3.6897     8.8171   -14.4964 H       0      f0     0.0249
    272 H           -2.6038    10.0030   -12.9106 H       0      f0     0.0225
    273 C           -2.6578     7.8662   -12.0072 C     103    f103     0.0021
    274 C           -2.2074     8.9667   -12.7683 C       0      f0    -0.0399
    275 C           -1.4150     6.9052   -11.8445 C     142    f142    -0.0164
    276 H           -1.5723     8.3672   -13.4772 H       0      f0     0.0349
    277 C           -0.2115     7.3104   -10.8781 C     142    f142    -0.0011
    278 C            0.8571     8.1366   -11.2358 C       0      f0     0.0000
    279 H            1.3851     6.3334   -13.9552 H       0      f0     0.0250
    280 C            2.1033     8.9108   -11.5233 C       0      f0    -0.0095
    281 C            3.1790     7.9017   -11.9877 C       0      f0    -0.0073
    282 C            3.5030     6.5450   -11.8551 C       0      f0    -0.0022
    283 H            4.2783     9.0769   -13.4043 H       0      f0     0.0212
    284 C            4.4584    10.1048   -12.9809 C       0      f0    -0.0363
    285 C            4.8949     7.3602   -15.1146 C       0      f0    -0.0223
    286 H            5.0512     6.5136   -14.4876 H       0      f0     0.0225
    287 C            5.4697     7.9687   -11.1792 C       0      f0    -0.0053
    288 C            5.8187     6.8557   -12.1329 C      48     f48    -0.0030
    289 C            5.9766     8.4772   -15.2621 C      37     f37    -0.0156
    290 C            5.9438     9.3543   -11.2524 C      50     f50    -0.0021
    291 H            5.8597     9.1488   -14.3341 H       0      f0     0.0192
    292 C            7.1748     6.3632   -12.2063 C      48     f48     0.0029
    293 C            8.1669     6.8897   -11.2712 C       0      f0    -0.0024
    294 C            8.8762     8.1195   -11.7771 C       0      f0     0.0040
    295 C            8.6264     9.3281   -11.1403 C       0      f0    -0.0006
    296 H            9.5352     9.1406   -13.7940 H       0      f0     0.0221
    297 C            9.7149     8.3300   -12.9546 C       0      f0    -0.0168
    298 C           10.9174     9.8896   -15.0968 C       6      f6    -0.0052
    299 C           10.8736     8.0766   -12.9743 C       6      f6     0.0048
    300 C           11.6585     8.8072   -14.2046 C       6      f6    -0.0022
    301 C           11.7870     7.2471   -12.1479 C       6      f6     0.0013
    302 C           12.9957     8.9691   -13.9029 C       6      f6     0.0057
    303 C           13.3757     7.3864   -12.2333 C       6      f6     0.0053
    304 C           14.0086     8.2570   -11.3280 C       0      f0     0.0011
    305 C           13.9433     7.8662   -13.4755 C       6      f6    -0.0169
    306 H          -14.6522     7.2510   -13.9406 H       0      f0     0.0241
    307 C          -14.4249    13.3889   -13.5136 C       0      f0     0.0069
    308 H          -13.6954    11.8717   -15.2108 H       0      f0     0.0202
    309 H          -14.6519    12.4808   -11.6829 H       0      f0     0.0636
    310 H          -13.1084    10.9070   -11.6584 H       0      f0     0.0585
    311 C          -12.8413    10.0462   -12.1244 C       0      f0    -0.0135
    312 H          -10.9453    12.5137   -11.4877 H       0      f0     0.0190
    313 C          -11.1674    13.1196    15.1742 C      89     f89    -0.0167
    314 H          -11.0529    13.4042   -14.2675 H       0      f0     0.0237
    315 C          -10.0478    10.3027   -12.7133 C       0      f0     0.0012
    316 C           -9.9661    11.6907   -12.0857 C       0      f0    -0.0154
    317 C           -8.7323    13.8141   -11.9377 C       0      f0     0.0082
    318 C           -8.8231    12.3074   -12.1035 C       0      f0    -0.0085
    319 H           -8.3384    11.9085   -13.0178 H       0      f0     0.0634
    320 O           -6.9962    12.6378   -14.8480 O       0      f0    -0.5104
    321 H           -6.6144    11.0510   -11.5541 H       0      f0     0.0449
    322 C           -5.8377    12.7812   -14.3662 C       0      f0     0.3224
    323 C           -6.0487    10.3573   -11.0272 C       0      f0    -0.0324
    324 H           -5.1729    12.0950   -13.7669 H       0      f0    -0.0311
    325 C           -4.7624    11.2949   -11.3166 C       0      f0    -0.0122
    326 H           -4.6240    11.3699   -12.3997 H       0      f0     0.0193
    327 C           -4.5629    13.2728   -15.0175 C       0      f0    -0.0612
    328 C           -3.6213    13.6557   -13.9438 C       0      f0    -0.0112
    329 C           -3.4512    13.3479   -11.2730 C      13     f13    -0.0161
    330 C           -2.9088    13.0803   -12.7903 C      13     f13    -0.0065
    331 C           -1.6787    12.6127   -12.7280 C      13     f13     0.0015
    332 C           -0.9882    12.9045   -11.5529 C      13     f13    -0.0261
    333 C           -1.1365    11.9949   -14.1055 C       0      f0    -0.0315
    334 H           -1.6659    11.1946   -14.4168 H       0      f0     0.0605
    335 C           -0.6780    12.7902   -15.1251 C       0      f0     0.0357
    336 H            0.0238    12.5899   -11.3811 H       0      f0     0.0179
    337 H            0.8681    11.8002   -14.6229 H       0      f0     0.0586
    338 H            1.5562    12.6321   -13.0649 H       0      f0     0.0200
    339 H            1.5616    10.7725   -13.1587 H       0      f0     0.0311
    340 C            1.5732    11.6643   -13.7851 C       0      f0    -0.0528
    341 C            2.7281    14.0225   -12.1207 C       0      f0    -0.0172
    342 C            2.6584   -14.1307   -13.5145 C       0      f0    -0.0051
    343 C            3.0222    11.7543   -14.3926 C      38     f38     0.0039
    344 H            3.7641    10.0478   -12.1103 H       0      f0     0.0229
    345 C            4.2007    10.9896   -14.1624 C      38     f38    -0.0014
    346 C            5.6966    12.5436   -11.3647 C     104    f104     0.0037
    347 C            5.9547    10.2718   -12.4837 C      50     f50    -0.0035
    348 C            6.2492    11.6967   -12.4401 C     104    f104     0.0014
    349 C            6.5690    13.6668   -10.9840 C     104    f104    -0.0070
    350 H            7.2374    12.7705   -14.3173 H       0      f0     0.0198
    351 C            7.1470    12.7456   -13.1658 C     104    f104    -0.0214
    352 C            7.6044    13.7371   -12.2731 C     104    f104    -0.0057
    353 H            8.5673    12.3751   -11.5668 H       0      f0     0.0250
    354 C            9.2020    11.6583   -11.0636 C       0      f0    -0.0233
    355 C           10.5549    11.8775   -11.0871 C       0      f0     0.0049
    356 C           10.9471    11.4189   -14.8354 C       6      f6    -0.0029
    357 C           11.3542   -14.1180   -15.1427 C       6      f6    -0.0043
    358 C           11.9543    12.0509   -11.1782 C       0      f0    -0.0260
    359 C           12.0963    11.4888   -14.0086 C       6      f6     0.0018
    360 C           12.1914    12.8765   -13.4093 C       6      f6    -0.0005
    361 C           12.2702    13.2491   -11.9545 C       6      f6     0.0095
    362 C           13.1327    10.4219   -13.7759 C       6      f6    -0.0005
    363 C           14.5312    10.9235   -13.2670 C       0      f0     0.0102
    364 C          -14.5731    12.4094   -12.7666 C       0      f0    -0.0272
    365 C          -14.5390   -13.7250    -7.1627 C      24     f24     0.2225
    366 C          -14.2572   -11.5098    -7.9743 C       0      f0     0.0694
    367 O          -14.2620   -11.4742   -10.7367 O     145    f145    -0.4716
    368 C          -13.9648   -12.8277    -7.9745 C      24     f24    -0.0292
    369 C          -13.3341   -10.2988    -7.4152 C       0      f0     0.0048
    370 C          -12.9525   -13.3839    -8.9306 C      24     f24     0.0237
    371 H          -12.1341   -12.5459    -9.0988 H       0      f0     0.0230
    372 H          -12.2176   -11.0055    -9.5503 H       0      f0     0.0452
    373 C          -11.5522   -10.2370   -10.0345 C      22     f22    -0.0185
    374 C          -10.0540   -10.3452    -9.9268 C       0      f0     0.0243
    375 C           -9.5627   -13.9155   -10.7622 C       0      f0     0.0023
    376 C           -9.3496   -10.5291    -8.9236 C       0      f0     0.0208
    377 C           -8.9506   -10.4893    -7.6468 C       0      f0    -0.0142
    378 C           -7.8701   -11.5000    -7.3785 C      23     f23     0.0005
    379 C           -8.1328   -11.6698   -10.3568 C       0      f0     0.0085
    380 C           -6.9228   -12.4057   -10.4897 C       0      f0     0.0077
    381 C           -6.4975   -11.3113    -7.7784 C      23     f23     0.0066
    382 C           -6.4605   -13.8726    -6.9333 C      23     f23     0.0244
    383 C           -6.0497   -13.2754   -10.7548 C       0      f0    -0.0124
    384 C           -5.7498   -12.4107    -7.2681 C      23     f23    -0.0051
    385 C           -5.2888   -13.7910    -9.7150 C       0      f0     0.0294
    386 C           -4.5785   -14.1266    -8.5171 C      23     f23    -0.0066
    387 C           -4.4371   -12.7282    -7.6569 C      23     f23    -0.0049
    388 C           -3.0336   -12.3058    -8.0308 C      13     f13    -0.0032
    389 C           -2.9116   -11.8683   -10.6680 C       0      f0    -0.0078
    390 C           -2.7790   -12.7434    -9.3782 C      13     f13    -0.0003
    391 C           -2.0810   -11.7859    -7.0611 C      13     f13     0.0006
    392 C           -1.2099   -12.4164    -9.2552 C      13     f13     0.0021
    393 H           -0.4468   -10.5530    -8.6012 H       0      f0     0.0255
    394 C           -0.7846   -11.4835    -8.1331 C      13     f13    -0.0183
    395 C           -0.5536   -13.7270    -9.6353 C      13     f13    -0.0079
    396 H            0.1523    -9.6986   -10.9272 H       0      f0     0.0387
    397 C            0.1677   -13.9619    -8.3973 C      13     f13    -0.0011
    398 C            0.5755   -12.6319    -7.9510 C      13     f13     0.0011
    399 H            1.7224   -12.2384   -10.1299 H       0      f0     0.0201
    400 C            1.9176   -12.3568    -7.5938 C       0      f0    -0.0171
    401 H            2.2669   -13.4002    -7.5960 H       0      f0     0.0252
    402 C            2.7154   -12.7256   -10.1559 C       0      f0    -0.0226
    403 H            2.6389   -10.2053    -8.2774 H       0      f0     0.0202
    404 C            3.0466   -11.4047    -8.1405 C     105    f105    -0.0165
    405 C            3.6085   -12.3777    -9.1737 C     105    f105     0.0020
    406 C            4.1957   -11.3106    -7.0846 C     105    f105    -0.0044
    407 C            5.0407   -12.3233    -9.1079 C     105    f105    -0.0025
    408 C            5.2159   -11.9171    -7.7965 C     105    f105     0.0018
    409 C            5.7143   -12.7634   -10.2866 C      51     f51    -0.0018
    410 C            6.4561   -13.7903    -9.8484 C      51     f51    -0.0002
    411 C            6.6014   -11.3022    -7.6607 C      51     f51    -0.0189
    412 H            6.5290   -10.4631    -6.9006 H       0      f0     0.0162
    413 C            7.5604   -13.3710    -8.8889 C      51     f51    -0.0324
    414 H            8.0792   -14.0573    -8.2077 H       0      f0     0.0186
    415 C            7.6514   -11.7968    -8.3160 C      51     f51     0.0026
    416 H            8.4808   -13.2531    -9.6126 H       0      f0     0.0204
    417 C            8.4350   -10.6834    -8.8739 C      18     f18    -0.0103
    418 C            9.2704   -10.6558   -10.0754 C      18     f18    -0.0013
    419 C           10.5202    14.1375   -10.2478 C       0      f0    -0.0169
    420 H           11.5657   -10.0084   -10.1599 H       0      f0     0.0179
    421 C           11.3485   -11.0710    -7.6827 C       0      f0    -0.0041
    422 C           11.5202   -13.0064   -10.5595 C       0      f0    -0.0012
    423 C           12.2427   -12.4742    -9.5187 C       0      f0     0.0180
    424 C           12.5638   -11.7980    -8.1226 C       0      f0     0.0348
    425 C           13.8868   -11.0754    -8.2705 C       0      f0     0.0152
    426 H           13.6597   -10.0484    -8.1229 H       0      f0     0.0113
    427 H          -14.3434    -6.7570   -10.5812 H       0      f0     0.0121
    428 C          -14.2550    -6.6648    -9.3941 C       0      f0    -0.0186
    429 C          -13.1864    -6.8912    -8.7880 C      22     f22    -0.0069
    430 C          -12.9608    -6.7243    -7.3620 C      22     f22     0.0043
    431 C          -12.5403    -8.0271    -7.0916 C      22     f22     0.0152
    432 C          -12.6383    -9.1543    -8.0990 C      22     f22    -0.0114
    433 C          -12.0054    -7.5593    -9.5969 C      22     f22     0.0139
    434 C          -11.8420    -9.0043    -9.2292 C      22     f22     0.0107
    435 H           -9.4784    -9.8322    -6.8503 H       0      f0     0.0225
    436 H           -9.4450    -7.6760    -6.8652 H       0      f0     0.0394
    437 O           -8.1341    -7.6346    -9.8379 O       0      f0    -0.4878
    438 H           -7.1372    -6.3472    -8.2928 H       0      f0    -0.0476
    439 C           -7.3658    -7.0839    -9.0701 C       0      f0     0.3537
    440 C           -5.8382   -10.2166    -7.1600 C       0      f0    -0.0170
    441 C           -5.7191    -7.0292    -9.4149 C       5      f5    -0.0399
    442 H           -5.5366    -8.5623   -10.7835 H       0      f0     0.0522
    443 C           -5.0163    -7.9798   -10.1622 C       5      f5    -0.0023
    444 H           -4.6281    -8.2815    -7.7006 H       0      f0     0.0175
    445 H           -5.0435   -10.2478    -7.9893 H       0      f0     0.0209
    446 C           -3.7960    -7.6390   -10.4612 C       5      f5    -0.0018
    447 C           -3.1460    -6.5070    -9.9151 C       5      f5     0.0084
    448 H           -3.0773    -7.4016    -6.8559 H       0      f0     0.0172
    449 C           -1.5318    -6.5858    -9.5797 C       5      f5    -0.0556
    450 C           -1.5715    -8.6277   -10.5198 C       5      f5    -0.0536
    451 C           -0.6836    -7.6399    -9.9749 C       5      f5     0.2228
    452 O            0.9481    -7.5105   -10.0574 O       0      f0    -0.5123
    453 C            2.2072    -8.0474   -10.5555 C       0      f0     0.2748
    454 C            3.3913    -8.2502    -9.7808 C       0      f0    -0.0310
    455 H            3.4342   -10.3437   -10.7692 H       0      f0     0.0152
    456 H            3.7655    -8.2761    -6.9088 H       0      f0     0.0151
    457 C            4.2047    -7.6247    -7.7485 C       0      f0    -0.0108
    458 C            4.5667    -6.3138    -7.3067 C       0      f0     0.0036
    459 C            4.4387    -8.4408    -9.0315 C       0      f0     0.0250
    460 C            5.6427    -8.4480   -10.0974 C      18     f18    -0.0238
    461 C            6.8726    -9.1423    -9.8628 C      18     f18     0.0021
    462 H            6.9648    -7.6146    -7.8063 H       0      f0     0.0323
    463 C            7.6563    -8.4211    -7.7355 C       0      f0    -0.0458
    464 C            7.6540    -9.3817    -8.6501 C      18     f18     0.0130
    465 H            8.0528    -8.4443    -6.8543 H       0      f0     0.0202
    466 H           10.9418    -8.5128    -7.8693 H       0      f0     0.0156
    467 C           10.5135    -9.8972    -9.8648 C       0      f0    -0.0113
    468 C           11.1710    -9.6488    -8.4325 C       0      f0    -0.0275
    469 H           12.2241    -9.1470    -8.7174 H       0      f0     0.0099
    470 H           12.6702    -7.3332    -8.6349 H       0      f0     0.0127
    471 C           12.9674    -6.2921    -8.9267 C       0      f0    -0.0196
    472 H           13.7523    -9.8942   -10.4713 H       0      f0    -0.0167
    473 H           14.5064    -5.8139    -7.3337 H       0      f0     0.0249
    474 H           14.5835    -4.5522    -9.9848 H       0      f0     0.0176
    475 C          -13.7960    -2.0984    -9.3000 C       4      f4    -0.0228
    476 C          -13.4692    -2.5436   -10.6455 C       4      f4     0.0010
    477 C          -13.0849    -2.5102    -6.6972 C       4      f4    -0.0142
    478 C          -13.0204    -2.3932    -8.0772 C       4      f4     0.0016
    479 C          -12.4858    -3.5923   -10.7843 C       4      f4    -0.0029
    480 C          -11.8881    -5.8507    -7.0439 C       0      f0     0.0103
    481 C          -11.9585    -3.3393    -8.4211 C       4      f4    -0.0007
    482 C          -11.5170    -3.7886    -9.5528 C       4      f4    -0.0068
    483 C          -10.9843    -3.4670    -7.1347 C       4      f4    -0.0278
    484 C          -10.7806    -5.1325    -9.8011 C       4      f4     0.0032
    485 C          -10.9305    -4.8927    -7.0000 C       0      f0     0.0609
    486 H           -9.8924    -3.0055    -6.8538 H       0      f0     0.0356
    487 C           -9.5819    -4.9728   -10.2467 C       0      f0     0.0377
    488 C           -8.3692    -4.3408   -10.9510 C       0      f0     0.0123
    489 C           -7.8617    -3.2213   -10.0414 C     106    f106    -0.0021
    490 C           -6.6628    -3.4861    -9.1303 C     106    f106     0.0015
    491 H           -6.6270    -4.2493    -6.6972 H       0      f0     0.0262
    492 C           -5.7640    -4.5325    -9.4068 C       0      f0    -0.0112
    493 C           -5.1933    -5.6009    -9.7957 C       5      f5     0.0161
    494 C           -4.4728    -2.5955    -6.8762 C      25     f25    -0.0044
    495 C           -4.2325    -2.9541    -8.3412 C       0      f0    -0.0076
    496 C           -3.7290    -5.3573    -9.5384 C       5      f5    -0.0020
    497 C           -3.1572    -4.0593    -8.9982 C       0      f0    -0.0315
    498 H           -3.2193    -3.2624    -9.8959 H       0      f0     0.0371
    499 H           -2.1404    -5.7487    -7.1911 H       0      f0     0.0183
    500 H           -2.2115    -4.1873    -8.4893 H       0      f0     0.0302
    501 C           -1.8624    -4.9184    -6.5303 C       0      f0    -0.0230
    502 C           -0.8119    -5.5118    -9.0257 C       0      f0     0.0582
    503 C           -0.4042    -4.6360    -6.9460 C       0      f0    -0.0013
    504 C           -0.0158    -4.5367    -8.3721 C       0      f0    -0.0078
    505 O           -0.0016    -2.2749   -10.5135 O       0      f0    -0.4615
    506 H            0.6013    -3.8043    -8.6838 H       0      f0     0.0485
    507 H            0.9152    -2.8641    -6.6154 H       0      f0     0.0212
    508 C            3.7557    -4.9439    -9.5336 C       0      f0     0.0245
    509 C            4.0629    -5.0561    -8.1900 C       0      f0    -0.0151
    510 C            3.9911    -4.4371   -10.7577 C       0      f0     0.0187
    511 H            4.7336    -4.3538    -7.5794 H       0      f0     0.0174
    512 C            5.6404    -3.6272   -10.6901 C      86     f86     0.0132
    513 H            7.1424    -5.1781    -9.9676 H       0      f0     0.0616
    514 C            6.7156    -4.1751   -10.1486 C      86     f86    -0.0147
    515 C            7.8329    -2.2704    -9.8446 C      86     f86     0.0050
    516 C            7.9173    -3.6019    -9.5341 C      86     f86    -0.0257
    517 H            8.8548    -3.9947    -9.2657 H       0      f0     0.0266
    518 H            9.1208    -3.4034    -6.2257 H       0      f0     0.0233
    519 C           10.6669    -3.0507    -9.4861 C       0      f0    -0.0054
    520 H           11.1638    -2.2250    -6.3589 H       0      f0     0.0148
    521 H           10.9118    -5.0705   -10.2435 H       0      f0     0.0236
    522 C           11.2824    -4.2578    -9.4551 C       0      f0    -0.0166
    523 C           11.8060    -4.5615    -7.0482 C       0      f0     0.0072
    524 C           12.2025    -4.9405    -8.4709 C       0      f0    -0.0045
    525 C           12.9640    -5.9443   -10.4718 C      43     f43    -0.0036
    526 C           13.9791    -4.9988   -10.8674 C      43     f43    -0.0202
    527 H           14.3772    -4.6637    -8.5096 H       0      f0     0.0183
    528 C           14.3726    -5.7414    -8.4719 C       0      f0    -0.0326
    529 H           14.6907    -1.6101    -9.2514 H       0      f0     0.0217
    530 C          -13.9562     1.6788    -8.0219 C       0      f0     0.0017
    531 C          -13.7848     0.7539   -10.1914 C       0      f0    -0.0144
    532 C          -13.4838     1.1124    -8.9576 C       0      f0    -0.0041
    533 H          -12.8880     0.1549   -10.5694 H       0      f0     0.0194
    534 H          -11.5513     0.1375    -7.1711 H       0      f0     0.0194
    535 H           -9.9891    -0.6867    -8.6599 H       0      f0     0.0178
    536 C           -9.7511    -0.5569    -7.6078 C       0      f0    -0.0149
    537 H           -9.0121    -1.1980   -10.4731 H       0      f0     0.0164
    538 C           -8.3943    -0.9851    -7.5692 C       0      f0    -0.0204
    539 C           -8.4211    -1.9011    -9.9223 C     106    f106    -0.0245
    540 C           -7.6022    -1.2166    -8.7625 C     106    f106    -0.0010
    541 H           -5.7742     0.7762    -9.9650 H       0      f0     0.0197
    542 H           -7.1545     1.9687    -8.0778 H       0      f0     0.0232
    543 C           -6.3311    -2.1209    -8.3954 C     106    f106    -0.0181
    544 H           -6.6309    -1.7849    -7.3167 H       0      f0     0.0193
    545 H           -5.2647     1.3833    -6.2247 H       0      f0     0.0181
    546 C           -5.2256     1.3915    -7.3767 C       0      f0    -0.0192
    547 C           -4.9061    -1.7740    -9.0562 C       0      f0    -0.0044
    548 C           -4.7518    -1.3351   -10.4833 C       0      f0    -0.0089
    549 C           -3.8403     1.3885    -7.3301 C       0      f0    -0.0047
    550 H           -4.0421     1.4170   -10.3325 H       0      f0     0.0216
    551 C           -3.4233    -1.6187    -6.6632 C      25     f25    -0.0218
    552 C           -3.2293    -1.2564   -10.7388 C       0      f0    -0.0010
    553 H           -2.4790    -1.4721    -7.3015 H       0      f0     0.0234
    554 C           -2.6283     1.2729    -7.0203 C       0      f0    -0.0062
    555 C           -2.2677    -1.0324    -9.7199 C       0      f0     0.0396
    556 C           -1.4149    -0.5716    -8.6692 C     107    f107     0.0203
    557 C           -1.4927     0.4320    -7.5343 C     107    f107    -0.0068
    558 C           -0.2224     0.3629    -6.9531 C     107    f107    -0.0199
    559 C            0.0676    -0.7212    -8.7303 C     107    f107    -0.0431
    560 C            0.7327    -1.7003    -9.5832 C       0      f0     0.2654
    561 C            0.9513    -0.4212    -7.6666 C     107    f107     0.0067
    562 C            1.4393     1.7776   -10.0279 C      39     f39     0.0005
    563 C            1.5685     0.5173   -10.7361 C      39     f39    -0.0179
    564 C            2.1543    -1.2154    -7.0610 C     108    f108     0.0035
    565 C            2.9456     0.1117   -10.8057 C      39     f39    -0.0161
    566 C            3.5466    -0.8500    -6.4122 C     108    f108     0.0189
    567 C            3.7793     1.2792   -10.5961 C      39     f39    -0.0174
    568 C            4.9337     1.4043    -7.0680 C       0      f0     0.0097
    569 H            5.9301    -0.1985    -6.3393 H       0      f0     0.0173
    570 C            5.7096     1.7503    -8.1766 C       0      f0    -0.0221
    571 H            6.4454     1.1770    -8.7676 H       0      f0     0.0168
    572 C            6.6563    -1.5620   -10.6274 C      86     f86    -0.0073
    573 H            8.4709    -0.3461    -9.3446 H       0      f0     0.0212
    574 C            8.6933    -1.3082    -9.2010 C       0      f0    -0.0269
    575 H            9.3113     1.1953    -7.0155 H       0      f0     0.0197
    576 C           10.1728    -1.6993    -8.9805 C       0      f0     0.0023
    577 C           10.2362     1.6940    -6.7011 C      19     f19    -0.0348
    578 C           11.0768     1.4749    -9.4206 C      19     f19    -0.0004
    579 C           11.2383    -0.7144    -8.6877 C       0      f0    -0.0168
    580 C           11.6691     0.2897    -9.7487 C      19     f19    -0.0004
    581 H           11.8168    -1.0963    -7.6988 H       0      f0     0.0154
    582 C           13.0139     0.8337   -10.1362 C      19     f19     0.0018
    583 C           14.3367     0.1361   -10.4470 C       0      f0     0.0010
    584 C          -14.1264     2.4874    -6.8143 C      10     f10    -0.0116
    585 C          -14.2234     4.6613    -8.2526 C      10     f10    -0.0007
    586 C          -13.9140     4.9537    -9.6445 C      10     f10     0.0030
    587 C          -13.1161     4.7758    -7.4592 C      10     f10    -0.0083
    588 C          -13.0067     3.3977    -6.6320 C      10     f10     0.0015
    589 C          -12.4339     5.1280    -9.5851 C      10     f10     0.0019
    590 C          -12.1053     5.3782    -8.2468 C      10     f10    -0.0018
    591 H          -10.9287     5.8902   -10.7442 H       0      f0     0.0168
    592 H           -9.9670     5.8481    -7.6584 H       0      f0     0.0171
    593 C           -9.8641     3.5863   -10.9949 C       0      f0     0.0023
    594 C           -8.5272     3.5563   -10.6780 C       0      f0    -0.0226
    595 H           -8.4091     4.2057    -9.9719 H       0      f0     0.0202
    596 H           -7.0395     5.0660    -9.1300 H       0      f0     0.0145
    597 H           -5.7595     4.3372    -9.3589 H       0      f0     0.0207
    598 C           -6.4855     5.1153    -8.0806 C      16     f16    -0.0152
    599 C           -6.2881     3.6811    -7.9513 C       0      f0    -0.0030
    600 C           -6.2570     2.3777    -8.0033 C       0      f0    -0.0219
    601 C           -5.3055     4.2056   -10.5314 C      88     f88    -0.0271
    602 C           -4.8546     5.3018    -8.0996 C      16     f16    -0.0068
    603 C           -4.1728     5.3805    -6.8425 C      16     f16    -0.0029
    604 H           -4.3069     4.0872   -10.0641 H       0      f0     0.0220
    605 C           -3.9580     5.9391    -9.0322 C       0      f0    -0.0062
    606 H           -3.7628     3.3534    -8.7605 H       0      f0     0.0197
    607 C           -2.6408     5.4258    -6.6210 C       0      f0     0.0013
    608 C           -2.7142     3.1480    -9.0851 C       0      f0    -0.0198
    609 C           -2.5537     3.2693   -10.5152 C      87     f87     0.0021
    610 C           -1.7811     5.8412   -10.6236 C     142    f142     0.0024
    611 C           -1.6730     4.1021    -6.6543 C       0      f0    -0.0232
    612 C           -1.5288     3.4694    -8.1820 C       0      f0     0.0028
    613 C           -0.4830     3.2907    -8.9415 C       0      f0    -0.0031
    614 C            0.4167     2.9999    -9.6996 C      39     f39    -0.0021
    615 C            1.5681     4.0857   -10.0335 C      39     f39    -0.0024
    616 C            1.5625     5.6988    -6.9855 C       0      f0    -0.0092
    617 C            2.8151     2.0138    -9.6202 C      39     f39     0.0038
    618 C            2.7656     3.5056    -9.3674 C      39     f39    -0.0031
    619 H            4.1244     5.8518    -9.3493 H       0      f0     0.0200
    620 H            3.6416     3.4690    -7.1075 H       0      f0     0.0238
    621 C            4.2872     3.8429    -9.3263 C       0      f0    -0.0263
    622 H            5.0691     4.6001    -8.8872 H       0      f0     0.0176
    623 C            5.1313     2.6985    -8.9936 C       0      f0    -0.0010
    624 H            7.4190     4.5736    -7.2935 H       0      f0     0.0207
    625 C            9.4325     5.4048    -9.5920 C       0      f0    -0.0033
    626 C           10.3229     4.0729    -6.7658 C      19     f19    -0.0145
    627 C           10.2265     4.4444    -9.3492 C      19     f19     0.0018
    628 C           10.1555     3.4564    -8.2245 C      19     f19    -0.0008
    629 C           10.5185     2.1198    -8.1368 C      19     f19     0.0022
    630 C           10.9578     3.8114   -10.6035 C      19     f19    -0.0013
    631 C           11.5218     2.4456   -10.4852 C      19     f19     0.0008
    632 C           13.0765     2.2914   -10.3882 C      19     f19    -0.0040
    633 C           13.1115     5.1438    -7.8846 C      10     f10    -0.0023
    634 H           13.6170     4.4707   -10.6437 H       0      f0     0.0216
    635 C           14.0993     4.4094    -7.8187 C      10     f10     0.0012
    636 C          -14.7353     4.9819   -10.7955 C      10     f10    -0.0160
    637 C          -12.5964     9.3012    -7.3788 C      11     f11     0.0121
    638 C          -11.3456     7.8993    -9.8037 C       0      f0     0.0037
    639 C          -10.9664     6.3157    -7.8196 C       0      f0    -0.0197
    640 C          -10.5801     7.4669    -8.6101 C       0      f0     0.0069
    641 C           -9.1637     7.5867    -8.9216 C       0      f0    -0.0047
    642 C           -9.2373     7.5301   -10.4417 C       0      f0    -0.0182
    643 C           -8.2296     8.1546    -8.1944 C       0      f0     0.0081
    644 H           -7.3189     6.9972    -6.2977 H       0      f0     0.0227
    645 C           -7.2221     8.7777    -7.4993 C       0      f0    -0.0172
    646 C           -6.6806     6.3318    -6.9052 C      16     f16    -0.0351
    647 H           -6.4979     9.6447    -8.0883 H       0      f0     0.0323
    648 H           -6.3240    10.3620    -9.8882 H       0      f0     0.0574
    649 H           -5.8534     6.8932    -7.4138 H       0      f0     0.0218
    650 H           -4.5875     9.4255    -8.9614 H       0      f0     0.0160
    651 C           -4.8372     8.0595   -11.1089 C       0      f0    -0.0087
    652 H           -4.2114     8.0921    -7.8287 H       0      f0     0.0170
    653 C           -3.6820     8.8041    -6.9970 C       0      f0    -0.0191
    654 C           -3.5771     7.6294   -10.8394 C     103    f103    -0.0036
    655 C           -3.1028     6.4038   -10.0317 C     103    f103     0.0008
    656 C           -2.3237     8.7788    -6.5219 C       0      f0     0.0020
    657 C           -2.1699     6.5291    -6.8322 C       0      f0     0.0014
    658 C           -1.6106     7.7487    -7.2599 C       0      f0    -0.0166
    659 H           -0.7267     8.4334    -7.0878 H       0      f0     0.0216
    660 H           -0.1402     5.6534    -7.4442 H       0      f0     0.0261
    661 C           -0.6295     6.5485    -9.7424 C     142    f142     0.0028
    662 C           -0.0798     6.4346    -8.4173 C       0      f0    -0.0158
    663 H            0.6429     8.7369    -8.5461 H       0      f0     0.0214
    664 C            1.4440     6.4454    -8.0776 C       0      f0    -0.0003
    665 C            1.7412     8.6465    -8.6554 C       0      f0    -0.0138
    666 C            2.5781     7.4199    -8.4183 C       0      f0    -0.0094
    667 C            2.4955     9.7762    -8.1263 C       0      f0     0.0038
    668 H            3.4310     7.2991    -7.6605 H       0      f0     0.0215
    669 C            4.1073     7.0201    -9.3118 C       0      f0    -0.0201
    670 C            4.7189     7.6273   -10.0870 C       0      f0     0.0054
    671 C            5.4796     9.7697    -6.9386 C     109    f109     0.0032
    672 C            5.8965     9.8280    -9.9168 C      50     f50    -0.0032
    673 C            6.4476     7.4371    -7.0890 C       0      f0     0.0000
    674 H            6.3793     8.1991    -9.3574 H       0      f0     0.0268
    675 C            6.8010     7.6845    -8.4991 C       0      f0    -0.0154
    676 C            7.9353     6.8191    -8.5803 C       0      f0    -0.0136
    677 H            8.2261     6.1561    -7.6618 H       0      f0     0.0199
    678 C            8.6335     6.3812    -9.9388 C       0      f0     0.0018
    679 H            9.9962     9.6535    -7.5392 H       0      f0     0.0195
    680 C           11.0946     9.6761    -7.1155 C       0      f0    -0.0166
    681 C           11.9034     8.4389    -7.0732 C       0      f0     0.0045
    682 C           13.1274     7.4038    -8.9513 C       0      f0     0.0021
    683 C           13.0140     6.2252    -8.4668 C       0      f0    -0.0017
    684 C           13.4039     8.7338    -6.7727 C       0      f0     0.0066
    685 C           13.6482     8.2270    -9.8699 C       0      f0    -0.0341
    686 C           13.7690     9.4836    -8.0081 C       0      f0    -0.0580
    687 C           14.2434     9.4712    -9.1035 C       0      f0     0.2227
    688 O          -14.5758    10.7322    -9.7574 O       0      f0    -0.4782
    689 C          -14.4132    13.2130    -7.3490 C      24     f24    -0.0252
    690 C          -13.4661    11.2660    -8.6070 C       0      f0     0.1669
    691 C          -13.3195    12.5923    -8.0450 C      24     f24     0.0130
    692 C          -12.7120    10.4431    -7.7683 C      11     f11     0.0739
    693 C          -12.4497    13.6236    -8.8433 C      24     f24     0.0085
    694 C          -11.0778    13.3833    -9.4291 C       0      f0     0.0113
    695 O          -11.1918    11.0304    -6.7331 O      11     f11    -0.4244
    696 C           -9.8837    13.4610    -9.8402 C       0      f0    -0.0401
    697 H           -9.4359    11.3120    -9.0898 H       0      f0    -0.0207
    698 C           -8.9137    12.1732    -9.1486 C       0      f0     0.3857
    699 O           -7.7339    12.3277    -9.0288 O       0      f0    -0.5496
    700 C           -6.0225    13.1019    -6.9571 C      23     f23    -0.0201
    701 C           -4.9497    12.9438    -7.8665 C      23     f23     0.0210
    702 C           -4.6448    10.4164    -8.3782 C       0      f0    -0.0190
    703 C           -4.5544    11.7283    -8.9404 C       0      f0     0.0199
    704 C           -4.0732    10.2206    -7.0556 C       0      f0    -0.0174
    705 C           -4.0924    12.0857   -10.3262 C       0      f0     0.0007
    706 C           -2.5791    14.0699   -10.1749 C      13     f13    -0.0153
    707 H           -2.7732    13.2944    -9.3178 H       0      f0     0.0211
    708 C           -1.4062    13.8945   -10.6945 C      13     f13     0.0014
    709 C           -1.0078    10.3049    -7.7544 C       0      f0     0.0039
    710 H           -1.2991    10.5602    -9.7776 H       0      f0     0.0195
    711 C           -0.7117    10.6831    -8.8879 C       0      f0    -0.0258
    712 C            0.5666    11.6472    -8.4278 C     110    f110     0.0003
    713 C            0.7540    13.0133    -7.8904 C     110    f110    -0.0023
    714 C            1.5123    10.7797    -7.5504 C     110    f110    -0.0015
    715 C            1.7313    12.8352    -6.7787 C     110    f110    -0.0022
    716 H            3.6494    12.6073   -11.0513 H       0      f0     0.0238
    717 C            3.6288    10.2249    -9.1666 C       0      f0    -0.0028
    718 H            4.1546    11.4543    -6.3047 H       0      f0     0.0222
    719 C            4.2131    10.3734    -6.5209 C     109    f109    -0.0170
    720 C            4.3398    13.3134    -6.7452 C       0      f0    -0.0003
    721 H            4.7445    12.4589    -9.6402 H       0      f0     0.0266
    722 C            4.4654    12.0755   -10.5171 C      50     f50    -0.0396
    723 C            4.6980    10.5195    -9.7191 C      50     f50     0.0024
    724 C            5.5495    13.1049    -7.3417 C       0      f0    -0.0168
    725 H            5.7279    12.9478    -8.4675 H       0      f0     0.0210
    726 C            6.8720    10.1930    -7.1428 C       0      f0    -0.0020
    727 C            7.1402    10.5780    -9.5410 C       0      f0     0.0002
    728 C            7.3648    10.6306    -8.3009 C       0      f0    -0.0092
    729 C            7.9998    12.8658    -6.5872 C       0      f0    -0.0209
    730 H            8.1364    12.7847    -7.6545 H       0      f0     0.0162
    731 C            8.3543    10.5578   -10.5803 C       0      f0     0.0020
    732 H            9.7855    12.0407    -7.0212 H       0      f0     0.0194
    733 H           10.5133    13.5276    -9.2603 H       0      f0     0.0213
    734 H           12.6104    11.5335   -10.6411 H       0      f0     0.0635
    735 C          -14.2904   -13.6512    -2.0485 C      52     f52    -0.0144
    736 H          -13.4162   -13.1751    -2.3678 H       0      f0     0.0280
    737 H          -12.5494   -11.3358    -4.9126 H       0      f0     0.0366
    738 C          -11.3413   -10.8435    -4.9473 C       0      f0    -0.0238
    739 C          -10.4173   -14.0257    -2.3738 C      26     f26    -0.0024
    740 C          -10.4036   -11.6592    -5.1698 C       0      f0    -0.0047
    741 C           -9.4524   -12.6378    -5.4240 C       0      f0    -0.0246
    742 H           -9.7617   -13.5043    -4.6514 H       0      f0     0.0235
    743 C           -8.4846   -12.6386    -6.4610 C      23     f23     0.0059
    744 H           -7.6460   -11.0509    -3.4624 H       0      f0     0.0139
    745 C           -7.7176   -13.8950    -6.3619 C      23     f23    -0.0175
    746 H           -5.4775    14.1043    -4.9852 H       0      f0     0.0185
    747 C           -3.4673   -10.5733    -3.6310 C       0      f0    -0.0218
    748 H           -3.3264   -11.6107    -3.1623 H       0      f0     0.0219
    749 C           -2.9868   -10.6055    -4.8896 C       0      f0    -0.0004
    750 C           -2.6311   -11.1705    -5.9274 C       0      f0    -0.0088
    751 C           -1.6391   -13.7910    -3.9501 C       0      f0    -0.0045
    752 C           -0.5374   -13.2615    -4.0459 C       0      f0     0.0044
    753 H            0.3075   -11.5877    -4.8993 H       0      f0     0.0217
    754 C            0.4405   -12.5631    -4.4437 C       0      f0    -0.0192
    755 C            1.8476   -13.0517    -4.5665 C       0      f0     0.0022
    756 H            2.4591    -9.9643    -6.4278 H       0      f0     0.0177
    757 C            2.5209   -13.7122    -5.2877 C       0      f0    -0.0032
    758 C            2.7924   -10.3798    -5.3614 C       0      f0    -0.0151
    759 C            4.0762   -11.0057    -5.6307 C       0      f0    -0.0200
    760 H            4.6749   -11.2755    -4.7279 H       0      f0     0.0213
    761 C            6.3181   -13.9724    -5.1780 C       0      f0    -0.0039
    762 C            7.5280   -13.3447    -4.8191 C       0      f0    -0.0024
    763 C            8.4102   -12.4351    -3.9796 C     111    f111    -0.0063
    764 C            8.4004   -12.2714    -2.2929 C     111    f111    -0.0050
    765 H            8.8946   -10.4380    -5.7876 H       0      f0     0.0226
    766 C            9.5995   -12.4712    -4.6125 C     111    f111    -0.0029
    767 C            9.8729   -10.2646    -5.5773 C       0      f0    -0.0448
    768 C           10.2395   -13.3777    -5.5951 C       0      f0     0.0104
    769 C           10.4688   -11.6499    -3.4610 C     111    f111    -0.0031
    770 C           11.1002   -10.8577    -6.2490 C       0      f0     0.0044
    771 C           11.7459   -11.0490    -3.8077 C       0      f0     0.0026
    772 C           12.2306   -10.7652    -5.3356 C       0      f0     0.0498
    773 C           12.6714   -11.2595    -2.6191 C       0      f0     0.0169
    774 C           13.3255   -12.5508    -2.5324 C       0      f0     0.0033
    775 C           13.5967   -13.6840    -2.8949 C       0      f0     0.0248
    776 O           14.1326   -13.1041    -5.9991 O      24     f24    -0.4826
    777 O           14.6900    -8.4038    -4.2396 O       0      f0    -0.4579
    778 C          -14.1200    -9.7934    -6.4198 C       0      f0    -0.0446
    779 C          -13.2431    -8.7354    -3.5927 C       0      f0     0.1406
    780 C          -13.2802    -9.7131    -2.6259 C       0      f0    -0.0257
    781 H          -13.2708    -7.9011    -2.8657 H       0      f0     0.0327
    782 H          -12.5864    -8.7396    -4.3706 H       0      f0     0.0120
    783 C          -11.7237    -8.7363    -6.2012 C       0      f0     0.0074
    784 C          -10.9740    -9.4642    -5.5121 C       0      f0    -0.0083
    785 C           -9.9387    -7.1463    -2.6496 C       7      f7    -0.0430
    786 C           -9.9081    -7.9780    -3.9127 C       0      f0     0.0194
    787 C           -9.7631    -8.7032    -5.0522 C       0      f0    -0.0099
    788 C           -8.8197    -7.8090    -5.9391 C       0      f0    -0.0151
    789 C           -7.8755    -7.0041    -5.4938 C       0      f0     0.0190
    790 C           -7.2763    -9.5823    -2.3254 C      53     f53    -0.0073
    791 C           -7.1240    -9.8975    -3.7038 C      53     f53    -0.0163
    792 C           -6.8302    -6.0177    -5.2524 C       0      f0     0.0020
    793 C           -5.8519    -9.4972    -4.4240 C      53     f53    -0.0012
    794 C           -5.6493    -9.3461    -5.8985 C       0      f0     0.0029
    795 H           -5.2725    -5.8543    -3.2289 H       0      f0     0.0247
    796 C           -4.9344   -10.0772    -3.4887 C      53     f53    -0.0013
    797 C           -4.7790    -8.4110    -6.6278 C       0      f0    -0.0222
    798 C           -4.1011    -6.4563    -5.1338 C       0      f0     0.0001
    799 C           -3.8976    -7.2234    -6.1241 C       0      f0    -0.0219
    800 H           -0.2379    -9.7951    -4.6753 H       0      f0     0.0192
    801 C            0.6879    -8.4503    -3.2065 C     112    f112     0.0077
    802 C            0.8638    -9.2166    -4.4662 C     112    f112    -0.0132
    803 C            1.1741    -7.0305    -3.0796 C     112    f112    -0.0049
    804 C            1.3647    -7.8684    -5.2556 C     112    f112    -0.0185
    805 C            1.5741    -6.7146    -4.5426 C     112    f112     0.0019
    806 H            1.2332    -7.7882    -6.3767 H       0      f0     0.0313
    807 C            2.2591    -9.8534    -4.1745 C       0      f0     0.0047
    808 C            2.6679    -9.9798    -2.8231 C       0      f0    -0.0006
    809 C            5.0651    -6.9884    -5.1129 C       0      f0    -0.0218
    810 H            4.8208    -7.9781    -5.5018 H       0      f0     0.0177
    811 C            5.5074    -6.8607    -4.0019 C       0      f0     0.0011
    812 C            5.8812    -6.1047    -2.7402 C       0      f0    -0.0033
    813 H            6.9517   -10.1262    -2.3173 H       0      f0     0.0212
    814 C            9.0764    -8.3733    -2.4828 C       0      f0    -0.0177
    815 H           10.1235   -10.1130    -4.5689 H       0      f0     0.0250
    816 H           11.3586    -6.5907    -6.1526 H       0      f0     0.0203
    817 H           11.5006    -7.0791    -2.6003 H       0      f0     0.0167
    818 C           12.5001    -7.0683    -3.0439 C      54     f54    -0.0298
    819 H           12.5062    -7.5200    -4.0332 H       0      f0     0.0614
    820 C           13.2736   -10.0759    -5.6913 C       0      f0    -0.0187
    821 C           14.4896    -9.4197    -5.5234 C       0      f0     0.2131
    822 C          -13.6711    -2.4058    -2.2158 C      56     f56    -0.0001
    823 C          -11.9787    -3.0085    -4.8480 C      55     f55    -0.0518
    824 C          -11.8762    -3.0476    -6.1227 C       4      f4     0.0452
    825 C          -11.2465    -3.5936    -3.8646 C      57     f57     0.2729
    826 C          -11.1672    -2.9004    -2.6853 C      58     f58    -0.0789
    827 O          -10.4873    -4.7254    -4.3644 O      57     f57    -0.4717
    828 C           -9.9820    -2.4999    -2.3280 C      58     f58     0.0280
    829 C           -9.8835    -5.7784    -2.9457 C      57     f57     0.1643
    830 H           -5.8699    -3.3186    -3.2014 H       0      f0     0.0489
    831 C           -6.0733    -4.0392    -5.8570 C       0      f0    -0.0177
    832 C           -6.0388    -5.0990    -4.9732 C       0      f0     0.0056
    833 C           -5.5212    -2.4151    -3.1868 C       0      f0    -0.0700
    834 C           -5.5148    -2.6748    -5.7264 C      25     f25    -0.0053
    835 C           -4.6731    -5.5743    -4.1203 C       0      f0    -0.0228
    836 C           -3.5166    -4.8723    -3.2529 C      27     f27    -0.0044
    837 C           -2.2135    -4.9455    -3.8992 C      27     f27    -0.0082
    838 C           -1.8802    -4.9657    -5.2753 C       0      f0     0.0005
    839 C           -1.6727    -3.5868    -3.2465 C      27     f27     0.0026
    840 H           -0.3670    -2.5890    -4.7733 H       0      f0     0.0275
    841 C           -0.8346    -2.6483    -3.8581 C       0      f0    -0.0256
    842 C            0.3188    -2.0036    -3.2461 C       0      f0     0.0141
    843 C            0.5918    -4.9475    -6.1520 C       0      f0     0.0006
    844 C            1.6068    -5.2143    -5.1904 C       0      f0    -0.0005
    845 C            1.7731    -2.3384    -6.4272 C     108    f108    -0.0163
    846 C            2.8471    -4.3386    -4.9870 C       0      f0    -0.0252
    847 C            2.6996    -2.9474    -5.4134 C     108    f108     0.0073
    848 H            3.6224    -4.5963    -4.3847 H       0      f0     0.0239
    849 C            5.0885    -5.8428    -6.0163 C       0      f0    -0.0053
    850 C            5.0776    -2.2480    -5.3354 C       0      f0    -0.0060
    851 H            5.5447    -3.6350    -2.6779 H       0      f0     0.0220
    852 C            6.0352    -4.8370    -5.8599 C       0      f0    -0.0085
    853 C            6.4466    -2.5905    -5.1172 C       0      f0    -0.0242
    854 C            6.5637    -3.8271    -2.3627 C       0      f0    -0.0155
    855 C            6.9856    -3.9611    -5.3809 C       0      f0    -0.0005
    856 C            7.0913    -5.2077    -2.4810 C       0      f0     0.0044
    857 H            8.5121    -5.6063    -4.1859 H       0      f0     0.0231
    858 C            8.5854    -3.6448    -5.3077 C       0      f0    -0.0109
    859 C            9.0443    -5.0400    -4.8774 C       0      f0    -0.0196
    860 C            9.2150    -2.2926    -4.8176 C       0      f0    -0.0312
    861 C            9.5008    -2.8811    -2.2945 C     113    f113    -0.0050
    862 C            9.9782    -2.9105    -3.7439 C     113    f113     0.0048
    863 C           10.0042    -5.5320    -5.4520 C       0      f0     0.0044
    864 C           11.0281    -5.6479    -6.2356 C       0      f0    -0.0229
    865 C           11.3464    -3.0278    -4.0424 C     113    f113    -0.0055
    866 C           11.7371    -3.2523    -2.5303 C     113    f113    -0.0178
    867 C           11.8056    -3.2589    -6.3871 C       0      f0    -0.0177
    868 C           12.3885    -3.2458    -4.9527 C       0      f0    -0.0015
    869 H           12.8481    -3.2514    -2.2884 H       0      f0     0.0220
    870 C           13.1448    -5.6162    -3.1277 C      54     f54     0.0160
    871 C           13.7712    -3.8397    -4.4747 C       0      f0    -0.0184
    872 C           14.0421    -5.1549    -4.1660 C       0      f0    -0.0159
    873 H           14.6178    -5.7720    -4.6721 H       0      f0     0.0572
    874 H           14.5293    -3.5151    -5.1482 H       0      f0     0.0261
    875 H          -14.6953     1.8781    -6.0261 H       0      f0     0.0171
    876 C          -13.9693    -1.5673    -5.8001 C       4      f4     0.0031
    877 C          -13.7384    -1.5304    -3.2842 C      56     f56    -0.0063
    878 C          -13.0516    -1.8397    -4.6703 C      55     f55    -0.0116
    879 H          -12.3637    -0.8324    -4.5152 H       0      f0     0.0181
    880 C          -11.2860     1.5551    -3.1848 C       0      f0    -0.0081
    881 C          -11.0330     0.9876    -4.4157 C       0      f0    -0.0073
    882 C          -10.6057    -0.1837    -6.5871 C       0      f0    -0.0152
    883 C          -10.1037     0.0058    -5.1101 C       0      f0     0.0004
    884 C           -9.6276    -1.4378    -3.2166 C       0      f0     0.0003
    885 C           -9.4987    -0.5354    -3.9285 C       0      f0    -0.0025
    886 H           -8.3058    -1.5851    -6.4993 H       0      f0     0.0226
    887 H           -6.4551    -0.1245    -3.4520 H       0      f0     0.0280
    888 C           -6.3658     1.9289    -2.8401 C       0      f0     0.0044
    889 C           -5.8303     0.7273    -3.2811 C       0      f0    -0.0192
    890 C           -4.9985    -2.1319    -4.4493 C      25     f25     0.0110
    891 C           -4.4749     0.4926    -4.1068 C      25     f25    -0.0018
    892 C           -4.4912    -0.7040    -4.6934 C      25     f25    -0.0110
    893 C           -3.3801    -0.7137    -5.5928 C      25     f25     0.0058
    894 C           -3.5459     1.5504    -4.5237 C      25     f25    -0.0051
    895 C           -2.6061     0.6443    -5.6153 C      25     f25    -0.0208
    896 H           -1.5209     0.7470    -5.3608 H       0      f0     0.0282
    897 H           -1.4696     1.1414    -2.7001 H       0      f0     0.0312
    898 C            0.2558     1.2772    -5.9149 C     146    f146     0.1326
    899 O            1.2829     1.0839    -4.7712 O     146    f146    -0.4620
    900 C            1.4387    -1.3658    -2.7074 C       0      f0    -0.0263
    901 H            1.9363    -0.5463    -3.2502 H       0      f0     0.0775
    902 C            3.8321    -1.9925    -5.4944 C     108    f108    -0.0021
    903 H            4.2216     1.1305    -4.1879 H       0      f0     0.0385
    904 C            4.8092     0.0345    -6.3865 C       0      f0    -0.0207
    905 C            4.9418     0.4352    -4.7092 C       0      f0    -0.0103
    906 C            6.1657     0.8343    -2.3066 C       0      f0    -0.0073
    907 C            5.8758     0.2116    -3.8607 C       0      f0    -0.0191
    908 H            6.6870    -0.3260    -4.3335 H       0      f0     0.0154
    909 H            7.0325    -2.3729    -4.1839 H       0      f0     0.0195
    910 H            8.6749    -1.4044    -4.6484 H       0      f0     0.0154
    911 C            9.5700     1.9781    -2.4902 C       3      f3    -0.0624
    912 H           10.3802     1.1536    -5.6498 H       0      f0     0.0181
    913 C           10.9188     2.1681    -2.6924 C       3      f3     0.0187
    914 C           13.0801     1.0664    -2.9868 C       3      f3     0.0103
    915 H           13.2395     0.8935    -5.1850 H       0      f0     0.0158
    916 C           13.1375     1.7523    -4.3622 C       3      f3    -0.0387
    917 H           13.3722    -0.7143    -5.2969 H       0      f0     0.0162
    918 C           13.6226    -0.1536    -2.6483 C      56     f56    -0.0098
    919 H           14.0319     2.2469    -4.3022 H       0      f0     0.0235
    920 C           14.3647    -0.9987    -5.2471 C       4      f4    -0.0281
    921 C           14.4674    -0.8617    -3.8324 C      56     f56    -0.0047
    922 H           14.6082     4.7566    -5.9087 H       0      f0     0.0169
    923 H          -12.4268     4.0682    -4.2668 H       0      f0     0.0177
    924 C          -11.9383     4.5351    -3.3336 C      59     f59    -0.0209
    925 C          -12.0187     3.0165    -5.9155 C       0      f0    -0.0094
    926 C          -11.4488     5.8731    -3.2237 C      59     f59    -0.0050
    927 C          -11.0638     2.0611    -5.5582 C       0      f0    -0.0174
    928 H          -10.4637     4.8747    -5.6348 H       0      f0     0.0189
    929 H          -10.1370     2.4820    -5.2754 H       0      f0     0.0207
    930 H           -9.6419     4.5174    -2.1553 H       0      f0     0.0229
    931 C           -9.6724     5.4638    -5.1606 C       0      f0    -0.0217
    932 C           -8.7900     4.7984    -2.8000 C      16     f16    -0.0182
    933 C           -8.5766     4.9852    -4.1297 C      16     f16     0.0086
    934 C           -7.0847     4.9421    -4.6820 C      16     f16    -0.0056
    935 C           -6.5791     4.4175    -2.4672 C      16     f16    -0.0049
    936 C           -6.3965     5.2174    -5.8778 C      16     f16     0.0040
    937 C           -6.0939     4.5071    -3.9355 C      16     f16     0.0028
    938 H           -4.9506     2.6486    -5.0235 H       0      f0     0.0197
    939 C           -5.1696     3.7884    -4.7968 C      16     f16    -0.0169
    940 C           -5.0788     4.8689    -5.8262 C      16     f16     0.0004
    941 C           -3.7315     3.9413    -4.2566 C     114    f114    -0.0017
    942 C           -3.0060     5.1769    -4.2704 C     114    f114    -0.0019
    943 C           -2.9183     2.7683    -4.2295 C     114    f114    -0.0063
    944 H           -2.1693     3.5139    -5.8977 H       0      f0     0.0232
    945 C           -1.6108     3.2254    -3.4032 C     114    f114     0.0021
    946 C           -1.6395     4.7889    -3.5150 C     114    f114    -0.0161
    947 H           -1.6100     5.5400    -2.6426 H       0      f0     0.0178
    948 C           -1.0001     2.2633    -2.7324 C       0      f0    -0.0004
    949 C           -0.3814     4.6088    -5.8753 C       0      f0     0.0048
    950 C           -0.3416     5.0845    -4.4571 C       0      f0    -0.0013
    951 C            0.8970     3.7172    -6.1849 C       0      f0    -0.0501
    952 H            1.0535     3.1701    -3.4553 H       0      f0     0.0483
    953 C            1.1046     2.2864    -5.6484 C     146    f146     0.1580
    954 C            1.1597     3.0275    -2.3058 C       0      f0    -0.0028
    955 C            1.8166     4.7489    -5.9504 C       0      f0    -0.0032
    956 H            2.8967     4.5522    -5.6378 H       0      f0     0.0153
    957 H            3.6045     1.8515    -5.7424 H       0      f0     0.0459
    958 C            4.2867     2.6973    -6.4294 C       0      f0    -0.0519
    959 H            4.7216     3.1544    -5.5785 H       0      f0     0.0246
    960 C            5.7014     3.1207    -2.1365 C       3      f3     0.0066
    961 C            5.6353     5.3469    -3.0897 C       3      f3    -0.0219
    962 C            6.4485     3.4279    -3.4730 C       3      f3     0.0008
    963 C            6.1855     4.7195    -4.1734 C       3      f3    -0.0018
    964 C            6.8366     5.1016    -5.5440 C       3      f3    -0.0024
    965 C            7.4120     4.1318    -6.3505 C       3      f3    -0.0216
    966 C            7.6550     2.9065    -4.0643 C       3      f3    -0.0084
    967 C            8.1054     3.0991    -5.4763 C       3      f3    -0.0006
    968 C            9.0527     2.5673    -3.4960 C       3      f3     0.0173
    969 H            9.7215     5.6790    -2.6892 H       0      f0     0.0283
    970 C            9.6224     2.8759    -5.7204 C      19     f19    -0.0020
    971 C           10.0539     5.4435    -6.2900 C       0      f0    -0.0067
    972 C            9.9161     2.9218    -4.4894 C       3      f3    -0.0071
    973 H           11.3166     3.6216    -6.6747 H       0      f0     0.0261
    974 C           11.2962     2.8383    -3.8893 C       3      f3    -0.0009
    975 C           11.3525     6.0268    -5.9166 C       0      f0     0.0003
    976 C           12.4261     3.0219    -4.6745 C       3      f3     0.0024
    977 C           12.3822     4.9922    -6.5023 C      10     f10    -0.0054
    978 C           12.8340     3.8425    -5.7772 C      10     f10    -0.0095
    979 C           13.8428     4.9296    -3.3252 C       0      f0    -0.0201
    980 C           14.2434     3.8175    -6.4343 C      10     f10    -0.0154
    981 H          -14.6810     4.6123    -3.5515 H       0      f0     0.0186
    982 C          -13.8754     7.3557    -3.1134 C       0      f0    -0.0040
    983 H          -13.3360     7.4565    -5.2303 H       0      f0     0.0156
    984 C          -13.0625     7.6725    -4.2137 C       0      f0    -0.0194
    985 H          -11.9634     6.4069    -5.9135 H       0      f0     0.0190
    986 C          -12.1317     8.7571    -3.7474 C     115    f115    -0.0075
    987 C          -11.8041     8.4912    -6.5710 C      11     f11    -0.0404
    988 C          -11.2209     7.0544    -6.2297 C      11     f11    -0.0159
    989 C          -11.1666     8.5303    -2.7953 C     115    f115    -0.0418
    990 C          -10.9051     9.5800    -6.1435 C      11     f11     0.2009
    991 C          -10.9956     7.0727    -2.2740 C      59     f59     0.0263
    992 C          -10.6247     9.7956    -2.5856 C     115    f115     0.2538
    993 C          -10.0844     6.8632    -5.3478 C      11     f11     0.0007
    994 C           -9.7390     9.2084    -5.4321 C      11     f11    -0.0366
    995 C           -9.3161     8.0338    -4.7173 C      11     f11    -0.0021
    996 C           -8.4761     8.4433    -3.7337 C      11     f11     0.0284
    997 C           -8.0917     9.8600    -3.9568 C      11     f11     0.0288
    998 C           -7.2021     7.9532    -2.8850 C      11     f11     0.0106
    999 C           -6.0441     8.7712    -2.9570 C      11     f11    -0.0103
   1000 C           -4.6669     8.7760    -3.5440 C       0      f0    -0.0015
   1001 C           -4.2420     7.6687    -4.5548 C       0      f0    -0.0201
   1002 C           -3.7168     9.8244    -3.2237 C       0      f0    -0.0038
   1003 C           -3.6875     6.5033    -4.3279 C       0      f0     0.0005
   1004 H           -4.2769     8.5572    -5.2392 H       0      f0     0.0214
   1005 C           -2.6025    10.1096    -3.9317 C       0      f0    -0.0097
   1006 C           -1.4290    10.0123    -6.5639 C       0      f0    -0.0079
   1007 C            0.5768     6.0954    -4.3405 C       0      f0    -0.0059
   1008 H            0.4641     9.2571    -3.9681 H       0      f0     0.0267
   1009 C            1.1759     8.5237    -4.1826 C       0      f0    -0.0197
   1010 C            1.4115     7.1677    -3.6349 C       0      f0     0.0055
   1011 C            1.8577     8.9923    -5.2832 C       0      f0    -0.0035
   1012 C            2.2842     6.6887    -2.5670 C       0      f0    -0.0190
   1013 C            2.9253     9.5034    -6.2845 C     109    f109     0.0057
   1014 H            2.9081     7.3659    -1.8300 H       0      f0     0.0211
   1015 H            3.3507     7.4731    -5.7236 H       0      f0     0.0174
   1016 C            3.8697     8.3631    -6.2997 C     109    f109    -0.0214
   1017 C            5.2328     8.4845    -6.8254 C     109    f109    -0.0009
   1018 C            5.1122     9.3542    -2.2363 C       0      f0    -0.0015
   1019 H            4.9520     6.3291    -2.9602 H       0      f0     0.0152
   1020 C            6.6824     6.6726    -5.6864 C       0      f0    -0.0222
   1021 H            5.9946     7.2273    -4.9473 H       0      f0     0.0188
   1022 H            9.2738     7.7037    -4.3210 H       0      f0     0.0207
   1023 C            8.0146     9.7258    -6.1565 C       0      f0    -0.0082
   1024 C            8.1422     8.1769    -3.9343 C       0      f0    -0.0207
   1025 C            8.2549     8.9672    -5.0280 C       0      f0    -0.0037
   1026 C            9.0206     8.5713    -2.7595 C       0      f0     0.0025
   1027 C            9.0152    10.0018    -2.6322 C       0      f0     0.0517
   1028 H           10.1734     7.2767    -5.8917 H       0      f0     0.0202
   1029 C           11.2233     7.4001    -6.3073 C       0      f0    -0.0187
   1030 H           11.8351     9.3591    -4.0397 H       0      f0     0.0469
   1031 C           12.8293     8.7790    -4.2066 C       0      f0    -0.0124
   1032 C           13.1054     7.4331    -3.8056 C       0      f0     0.0074
   1033 C           13.4449     6.2701    -3.6073 C       0      f0    -0.0034
   1034 C           13.9071     8.9983    -5.4182 C       0      f0    -0.0124
   1035 H          -14.6873     8.1324    -5.7150 H       0      f0     0.0147
   1036 H          -14.3759    10.3847    -4.0262 H       0      f0     0.0175
   1037 C          -13.8505    13.0893    -2.2226 C      52     f52    -0.0036
   1038 H          -12.8814    10.5704    -4.8947 H       0      f0     0.0453
   1039 C          -12.1453    10.1435    -4.2694 C     115    f115    -0.0128
   1040 C          -12.3305    13.1106    -2.3123 C      52     f52    -0.0109
   1041 C          -11.3383    10.8649    -3.2935 C     115    f115    -0.0428
   1042 C          -11.4354    12.4356    -3.1414 C      26     f26     0.0299
   1043 C          -10.1462    13.1771    -3.2507 C      26     f26    -0.0129
   1044 H           -9.1227    12.6873    -3.4940 H       0      f0     0.0319
   1045 H           -9.0871    11.4076    -5.2221 H       0      f0     0.0522
   1046 C           -8.9322    10.3425    -4.9074 C      11     f11     0.0022
   1047 H           -7.9318    13.3233    -6.3135 H       0      f0     0.0389
   1048 C           -6.8150    10.1636    -3.0740 C      11     f11    -0.0059
   1049 H           -6.6378    12.2504    -7.1916 H       0      f0     0.0831
   1050 C           -5.7294    11.1848    -3.1591 C       0      f0    -0.0025
   1051 C           -5.6001    14.0842    -2.2395 C       0      f0    -0.0038
   1052 C           -5.4913    11.8774    -4.4038 C       0      f0    -0.0075
   1053 C           -4.9117    13.1073    -5.0292 C       0      f0    -0.0159
   1054 C           -4.5079    11.7866    -2.1397 C       0      f0    -0.0215
   1055 C           -4.6261    13.3699    -2.4127 C       0      f0    -0.0034
   1056 H           -4.0653    10.7972    -6.1418 H       0      f0     0.0176
   1057 H           -3.5997    11.9650    -2.7668 H       0      f0     0.0222
   1058 C           -3.5173    13.3148    -5.4548 C       0      f0    -0.0300
   1059 H           -3.2507   -14.0504    -6.1531 H       0      f0     0.0225
   1060 C           -3.2732    14.0472    -2.5898 C       0      f0    -0.0083
   1061 C           -2.7070    13.9103    -4.1598 C       0      f0    -0.0025
   1062 H           -3.1646    12.2914    -5.9414 H       0      f0     0.0192
   1063 C           -1.4339    10.6095    -4.2208 C     116    f116    -0.0002
   1064 C           -0.5838    11.6915    -3.4928 C     116    f116    -0.0177
   1065 H           -0.8244    11.9216    -2.5636 H       0      f0     0.0188
   1066 C           -0.7099    10.5242    -5.3633 C     116    f116    -0.0023
   1067 C            0.2745    11.3736    -5.5637 C     116    f116     0.0013
   1068 C            0.2360    12.0342    -4.3239 C     116    f116    -0.0097
   1069 H            1.0432    12.8529    -4.1783 H       0      f0     0.0220
   1070 C            1.4739    11.5505    -6.2570 C     110    f110    -0.0020
   1071 C            3.0123    13.6921    -6.1820 C       0      f0    -0.0052
   1072 C            4.2899    10.1714    -2.7828 C       0      f0     0.0010
   1073 C            4.8969    11.4573    -3.3427 C       0      f0    -0.0206
   1074 H            4.9376    11.5747    -4.3915 H       0      f0     0.0209
   1075 C            5.8404    11.9818    -2.7127 C       0      f0     0.0022
   1076 C            6.6952    13.3631    -6.4142 C       0      f0     0.0048
   1077 H            7.9337    12.0693    -4.5263 H       0      f0     0.0192
   1078 C            8.4223    12.8098    -5.2694 C       0      f0    -0.0146
   1079 H            9.7908    12.2152    -3.9513 H       0      f0     0.0139
   1080 C            9.7122    13.6194    -5.2592 C       0      f0    -0.0072
   1081 C            9.8321    10.9981    -3.4785 C       0      f0    -0.0494
   1082 C           10.7486    12.0143    -6.5320 C       0      f0    -0.0169
   1083 C           11.1726    11.1968    -3.0621 C     117    f117     0.2015
   1084 C           11.0105    13.0051    -5.4111 C       0      f0    -0.0032
   1085 C           11.3916    10.8327    -6.4958 C       0      f0    -0.0090
   1086 C           12.1869    12.9371    -4.3279 C       0      f0     0.0028
   1087 C           12.0487    11.9240    -3.3728 C     117    f117    -0.0553
   1088 H           12.3096    10.7866    -5.7572 H       0      f0     0.0215
   1089 C           13.2598    13.7972    -4.0570 C       0      f0    -0.0321
   1090 C           13.4992    11.5034    -2.8007 C     117    f117    -0.0523
   1091 C           13.8595    13.8611    -5.3216 C      24     f24     0.2158
   1092 C           14.3292    12.6425    -6.1258 C      24     f24    -0.0298
   1093 C           14.5019    11.5075    -5.5815 C       0      f0     0.0108
   1094 C           14.6799    12.2146    -2.6791 C       0      f0     0.0013
   1095 C           14.7091    10.2856    -5.1832 C       0      f0    -0.0209
   1096 C          -14.6397   -13.5916    -0.7231 C      52     f52    -0.0201
   1097 C          -14.2833   -10.5999    -0.5032 C       0      f0    -0.0026
   1098 C          -13.5742   -10.1317    -1.5434 C       0      f0     0.0137
   1099 C          -13.4328   -10.1370     1.9955 C       0      f0    -0.0018
   1100 C          -13.6455   -13.6973     0.3702 C      52     f52    -0.0051
   1101 C          -12.7422   -11.2521     2.2570 C       0      f0     0.0053
   1102 C          -12.3382   -13.5182    -0.2301 C      52     f52    -0.0032
   1103 C          -11.7213   -14.1038    -1.6181 C      52     f52    -0.0043
   1104 C          -11.2346   -12.5953    -0.1962 C      26     f26    -0.0030
   1105 C          -10.5743   -13.7660     1.6357 C       2      f2    -0.0102
   1106 C           -9.9727   -12.1037    -0.7438 C      26     f26     0.0008
   1107 H           -9.7599   -11.1493    -1.2404 H       0      f0     0.0251
   1108 C           -9.3495   -13.0044    -1.7979 C      26     f26    -0.0084
   1109 C           -7.9063   -13.9369     1.8779 C       2      f2    -0.0244
   1110 C           -8.0637   -13.3637    -1.9067 C       0      f0     0.0006
   1111 H           -6.9254    14.0492     1.4583 H       0      f0     0.0189
   1112 C           -6.6524   -13.6150    -1.9879 C       0      f0    -0.0006
   1113 C           -6.1565   -11.8634     2.1092 C       2      f2     0.0053
   1114 H           -6.6741   -12.5959     1.3007 H       0      f0     0.0325
   1115 C           -3.9467   -10.9158     1.1712 C       0      f0     0.0114
   1116 H           -3.0185   -10.4907    -1.4573 H       0      f0     0.0211
   1117 H           -3.3744   -12.9216     1.2756 H       0      f0     0.0203
   1118 C           -2.9339   -11.8887     1.1407 C       0      f0    -0.0211
   1119 C           -2.4499   -13.2735    -1.8894 C       0      f0    -0.0033
   1120 C           -1.4606   -11.6065     0.8833 C       0      f0    -0.0011
   1121 C           -1.4823   -12.4288    -1.4451 C       0      f0    -0.0042
   1122 C           -1.0683   -12.6409     0.1154 C       0      f0     0.0027
   1123 C           -0.3313   -10.9505     1.7209 C       0      f0    -0.0205
   1124 C           -0.3056   -10.2599    -1.8319 C       0      f0    -0.0012
   1125 C           -0.2283   -11.6974    -1.8213 C       0      f0     0.0001
   1126 H            0.4698   -13.9904     0.1302 H       0      f0     0.0191
   1127 C            0.9948   -12.4335    -1.6585 C       0      f0    -0.0029
   1128 C            2.2902   -12.7326    -1.4092 C       0      f0    -0.0054
   1129 H            2.8952   -13.8923     1.1053 H       0      f0     0.0199
   1130 C            3.2544   -13.6697    -0.9356 C      60     f60    -0.0044
   1131 C            4.6864   -13.0727    -0.4168 C      60     f60    -0.0004
   1132 C            4.7591   -10.5834     0.1879 C     118    f118     0.0029
   1133 C            4.5550   -11.8593    -0.1681 C       0      f0     0.0033
   1134 C            5.1346   -10.3341     1.6461 C     118    f118    -0.0170
   1135 H            5.4032   -10.8756     2.6939 H       0      f0     0.0397
   1136 C            6.2955   -13.3895    -0.7151 C      60     f60     0.0123
   1137 C            7.3567   -12.6161    -1.2273 C       0      f0    -0.0078
   1138 H            8.0845   -11.9011     0.4062 H       0      f0     0.0387
   1139 C            8.7179   -11.7764     1.3498 C      28     f28    -0.0591
   1140 C            8.7260   -10.2477     1.4894 C      61     f61    -0.0057
   1141 C            9.7381   -11.7513    -2.2324 C     111    f111    -0.0230
   1142 H           10.2132    14.0936    -2.0510 H       0      f0     0.0196
   1143 H           10.0708   -11.6754    -1.1477 H       0      f0     0.0154
   1144 H           10.9918   -12.7434     0.6695 H       0      f0     0.0188
   1145 C           11.2682   -13.7663     1.0138 C       0      f0    -0.0281
   1146 C           12.1312   -10.4723     1.8350 C      62     f62    -0.0071
   1147 H           12.0244   -13.8280     1.9038 H       0      f0     0.0179
   1148 C           12.8064   -10.3342    -1.4877 C       0      f0     0.0064
   1149 C           13.0327   -10.7026     0.9202 C       0      f0    -0.0108
   1150 C           13.6571   -10.8186    -0.3667 C       0      f0    -0.0021
   1151 H           13.7901   -13.4911    -0.5100 H       0      f0     0.0187
   1152 C          -14.0856    -7.6391    -0.9052 C       0      f0     0.0049
   1153 C          -13.8007    -9.8058     0.6751 C       0      f0    -0.0016
   1154 C          -13.4616    -8.4209     0.2861 C       0      f0    -0.0263
   1155 C          -13.0771    -6.3736    -0.9701 C       7      f7    -0.0009
   1156 H          -12.7437    -7.9356     0.8354 H       0      f0     0.0234
   1157 C          -11.6860    -6.6024    -0.6329 C       7      f7    -0.0149
   1158 H          -10.9363    -7.5600    -0.4798 H       0      f0     0.0216
   1159 H          -10.9622    -9.8048     0.8890 H       0      f0     0.0423
   1160 C          -10.7714    -8.8932     1.7355 C      14     f14    -0.0797
   1161 C           -9.3834    -8.9187     1.9372 C      14     f14     0.2343
   1162 C           -9.1220    -7.2702    -1.3775 C       7      f7     0.0078
   1163 O           -8.2439    -9.7866     1.3646 O      14     f14    -0.4242
   1164 H           -8.1745   -10.2687    -1.9828 H       0      f0     0.0282
   1165 C           -7.5864    -7.3048    -1.3003 C      29     f29    -0.0005
   1166 C           -6.7799    -8.4187    -1.5671 C      53     f53     0.0221
   1167 C           -6.9828    -6.5877    -0.0529 C      29     f29     0.0116
   1168 C           -5.5537    -8.7416     1.4428 C       0      f0    -0.0092
   1169 C           -5.3878    -8.1789    -1.8835 C      53     f53    -0.0002
   1170 C           -5.6230    -6.5269    -0.1121 C      29     f29    -0.0040
   1171 C           -4.7699    -9.6292    -2.1343 C      53     f53     0.0086
   1172 C           -4.7256    -7.2430    -1.0227 C      29     f29    -0.0201
   1173 C           -4.3798    -8.6915     0.7458 C       0      f0    -0.0048
   1174 C           -3.8142    -9.8161    -1.1385 C       0      f0    -0.0119
   1175 H           -4.0723    -7.6064     1.2190 H       0      f0     0.0228
   1176 H           -3.6708    -7.1948    -0.8476 H       0      f0     0.0215
   1177 C           -3.3147    -9.7807     0.4143 C       0      f0    -0.0148
   1178 H           -2.1904    -9.6293     0.5395 H       0      f0     0.0194
   1179 H           -0.9370    -8.1241    -1.4910 H       0      f0     0.0182
   1180 C           -0.2291    -8.9066    -2.0568 C       0      f0    -0.0183
   1181 H           -0.3237    -9.7545     1.8759 H       0      f0     0.0204
   1182 C            1.9280    -6.5186    -2.0127 C       0      f0    -0.0043
   1183 C            2.9998    -9.9301    -1.5749 C       0      f0    -0.0037
   1184 H            3.3079    -7.6727     0.4089 H       0      f0     0.0196
   1185 C            3.7250    -9.5750    -0.3977 C     118    f118    -0.0028
   1186 C            3.9051    -8.5286     0.5777 C     118    f118    -0.0212
   1187 C            4.4142    -9.1720     1.9498 C     118    f118    -0.0085
   1188 H            6.0608    -9.0744    -1.4235 H       0      f0     0.0250
   1189 C            7.0941    -9.3353    -1.4838 C       0      f0    -0.0573
   1190 C            7.4827    -7.9278     1.2239 C       0      f0    -0.0221
   1191 H            7.7933    -9.8370     1.1291 H       0      f0     0.0175
   1192 H            7.3298    -9.9962    -0.6132 H       0      f0     0.0189
   1193 H            7.3269    -8.6210     0.2751 H       0      f0     0.0168
   1194 C            8.1976    -6.7058     0.6755 C       0      f0    -0.0025
   1195 C            8.0820    -8.0618    -1.6728 C       0      f0     0.0024
   1196 C            8.2413    -6.6126    -0.7847 C       0      f0    -0.0054
   1197 H            9.6345    -8.3532     0.4656 H       0      f0     0.0219
   1198 C           10.1476    -9.3365     0.6353 C      61     f61    -0.0384
   1199 H           10.4680    -9.8832    -0.2502 H       0      f0     0.0188
   1200 C           11.1338    -9.2788     1.6773 C      62     f62     0.0025
   1201 H           11.3334    -8.7804    -1.7453 H       0      f0     0.0178
   1202 H           11.8683    -7.2927    -0.3285 H       0      f0     0.0197
   1203 C           11.7691    -6.7160     2.0923 C       0      f0    -0.0102
   1204 C           12.0159    -7.9411     2.0083 C      62     f62    -0.0055
   1205 C           12.4055    -8.8896    -1.7825 C       0      f0    -0.0223
   1206 C           12.6524    -6.6833    -0.1448 C      54     f54    -0.0166
   1207 C           13.5140    -7.9029    -2.0420 C      54     f54     0.0732
   1208 C           13.7365    -7.3253    -0.7652 C      54     f54    -0.0166
   1209 C           14.5723    -2.9566    -1.4082 C      63     f63     0.0024
   1210 C          -14.7264    -4.3358    -1.2834 C      63     f63     0.0040
   1211 H          -14.6759    -5.2433     1.9624 H       0      f0     0.0344
   1212 C          -13.2500    -5.0246    -1.1047 C       7      f7     0.0072
   1213 C          -12.1751    -2.4988    -1.6660 C      58     f58     0.0016
   1214 C          -12.2019    -4.0370    -1.0637 C      58     f58     0.0128
   1215 C          -11.0521    -4.2583    -0.3377 C      58     f58     0.0341
   1216 C          -10.7365    -5.6105    -0.2664 C       7      f7    -0.0051
   1217 C           -9.7011    -3.4222    -0.3806 C      58     f58    -0.0007
   1218 C           -9.4628    -5.0481    -1.8838 C      57     f57    -0.0233
   1219 C           -9.3039    -5.9928    -0.7330 C       7      f7    -0.0070
   1220 C           -9.0839    -3.4908    -1.7849 C      58     f58    -0.0085
   1221 C           -8.9915    -3.4324     0.7392 C       0      f0     0.0214
   1222 H           -8.8593    -6.0665     1.3965 H       0      f0     0.0202
   1223 H           -8.0575    -3.1916    -1.8409 H       0      f0     0.0691
   1224 C           -8.2616    -3.4072     1.8114 C       0      f0     0.0034
   1225 C           -7.6578    -6.0080     1.2408 C      29     f29    -0.0143
   1226 C           -7.1508    -2.3270     2.1115 C      20     f20    -0.0110
   1227 C           -6.6175    -5.6724     2.0032 C      29     f29     0.0070
   1228 O           -6.2351    -2.1526    -0.6328 O      20     f20    -0.4881
   1229 C           -5.2886    -5.8065     1.3192 C      29     f29    -0.0100
   1230 H           -4.9068    -4.2813    -0.4163 H       0      f0     0.0567
   1231 C           -4.1067    -5.0797     1.7087 C       0      f0    -0.0158
   1232 C           -3.8992    -4.2639    -0.6685 C      27     f27    -0.0238
   1233 C           -3.4504    -4.2432     0.7366 C      27     f27     0.0426
   1234 C           -3.2627    -4.5635    -1.8229 C      27     f27     0.0054
   1235 C           -2.0135    -3.6806     0.7020 C      27     f27    -0.0421
   1236 C           -2.0677    -3.6842    -1.8996 C      27     f27    -0.0046
   1237 C           -1.8199    -2.8480    -0.6723 C      27     f27     0.0134
   1238 C           -1.1533    -4.2256     1.6149 C       0      f0     0.2167
   1239 C            0.2107    -3.6275     1.5340 C       0      f0    -0.0615
   1240 C            0.9232    -3.0815     0.6395 C       0      f0     0.0157
   1241 C            1.5551    -2.6997    -0.4536 C       0      f0    -0.0065
   1242 H            2.0193    -6.1323    -0.2234 H       0      f0     0.0185
   1243 C            2.5120    -5.7812    -1.1210 C       0      f0    -0.0161
   1244 C            3.9976    -5.3631    -0.6725 C       0      f0    -0.0224
   1245 H            4.6701    -5.3341     2.0617 H       0      f0     0.0274
   1246 H            4.4182    -4.5170    -0.1017 H       0      f0     0.0313
   1247 C            4.7204    -5.8767    -1.7521 C       0      f0     0.0026
   1248 H            6.7540    -1.6911    -1.5880 H       0      f0     0.0247
   1249 C            7.1092    -2.6954    -1.8183 C       0      f0    -0.0135
   1250 C            7.7992    -5.6181     1.7271 C       0      f0     0.0011
   1251 C            8.2462    -5.5154    -1.6560 C       0      f0    -0.0154
   1252 C            8.3365    -2.1466     1.6954 C       0      f0    -0.0393
   1253 C            8.3518    -2.2730    -1.8174 C       0      f0    -0.0080
   1254 H            8.6461    -4.8739    -0.8344 H       0      f0     0.0227
   1255 C            8.8962    -4.6300     1.8426 C       0      f0    -0.0019
   1256 C           10.2779    -4.9882     1.2246 C       0      f0    -0.0412
   1257 H           10.5284    -5.3105     0.3310 H       0      f0     0.0204
   1258 H           10.0838    -3.9686     0.7417 H       0      f0     0.0140
   1259 H           10.8220    -2.9321     1.1700 H       0      f0     0.0122
   1260 C           10.7111    -3.3822    -1.6415 C     113    f113    -0.0238
   1261 H           10.5755    -3.3574    -0.6246 H       0      f0     0.0126
   1262 C           11.3823    -2.1171     1.9995 C       0      f0    -0.0156
   1263 H           11.5615    -2.1591    -0.0731 H       0      f0     0.0150
   1264 C           11.4862    -5.3308     2.0951 C       0      f0    -0.0015
   1265 C           12.5847    -2.6729     0.0469 C      63     f63    -0.0218
   1266 C           12.5454    -1.9627     1.4088 C       0      f0     0.0085
   1267 C           12.7772    -4.4886     1.9993 C       0      f0    -0.0051
   1268 C           12.8016    -5.1744    -0.5207 C      63     f63    -0.0035
   1269 C           12.9726    -4.1350     0.5010 C      63     f63    -0.0016
   1270 C           13.5245    -2.0416    -1.0982 C      63     f63    -0.0054
   1271 C           13.5407    -5.0491    -1.9219 C      63     f63    -0.0040
   1272 C          -14.6684     1.9127    -0.6332 C      21     f21     0.2473
   1273 C          -13.6315     1.0537    -0.7144 C      21     f21    -0.0486
   1274 H          -13.2834     0.1718    -0.0856 H       0      f0     0.0582
   1275 C          -12.9385     1.7442    -1.7269 C      21     f21    -0.0106
   1276 H          -11.7901    -1.6399    -1.1131 H       0      f0     0.0271
   1277 C          -11.3571     1.6324    -1.7300 C       0      f0    -0.0006
   1278 C          -10.8472     0.5628     1.8011 C       0      f0    -0.0516
   1279 C          -10.4973     1.7215     0.9078 C       0      f0     0.0195
   1280 C          -10.2880     1.8117    -0.6405 C       0      f0    -0.0143
   1281 C           -9.9427    -0.4496     1.3115 C       0      f0     0.0220
   1282 H           -9.7785    -0.0719     0.2934 H       0      f0     0.0240
   1283 C           -6.0981    -1.2683     1.4736 C      20     f20    -0.0522
   1284 C           -5.5994    -1.2395     0.3826 C      20     f20     0.1815
   1285 C           -5.3402    -1.7773    -1.9319 C      20     f20     0.2152
   1286 C           -4.5705    -0.6753    -0.0938 C      20     f20     0.2045
   1287 C           -4.4012    -1.0581    -1.4182 C      20     f20    -0.1009
   1288 C           -4.1400    -0.1003     2.2079 C      20     f20     0.2306
   1289 H           -3.6385    -0.7617    -1.9468 H       0      f0     0.0500
   1290 O           -3.4947    -0.2135     0.9231 O      20     f20    -0.5344
   1291 C           -1.3228    -1.5659    -0.6289 C       0      f0     0.0299
   1292 H           -1.4895     0.5120     0.9619 H       0      f0     0.0795
   1293 C           -1.0027     0.8090     0.0286 C       0      f0    -0.0026
   1294 C           -0.7270    -0.3443    -0.7281 C       0      f0    -0.0118
   1295 C           -0.1432     2.0511    -0.2963 C       0      f0    -0.0072
   1296 H            0.2052    -0.2740    -1.5057 H       0      f0     0.0278
   1297 C            1.1947     1.2329     1.7315 C       0      f0    -0.0228
   1298 C            2.0426    -1.8023    -1.3985 C       0      f0     0.0024
   1299 H            2.0951     1.3547     2.4168 H       0      f0     0.0222
   1300 C            3.1252    -0.8209    -1.1145 C       0      f0     0.0004
   1301 C            3.7996     0.1649    -0.8737 C       0      f0     0.0116
   1302 C            4.0519     1.6046    -0.7187 C       0      f0    -0.0127
   1303 C            5.1340     1.7994    -1.6282 C       0      f0     0.0125
   1304 C            6.7844    -1.5569     1.8373 C       0      f0     0.2849
   1305 C            7.0664     0.0913    -1.5642 C       0      f0     0.0196
   1306 C            7.1842    -0.1133     1.8127 C       0      f0    -0.0689
   1307 H            8.2856     0.2137     1.4812 H       0      f0     0.0604
   1308 C            8.3388     0.0076    -1.4049 C       0      f0    -0.0757
   1309 C            8.7062    -1.8362     0.5558 C       0      f0    -0.0046
   1310 C            9.0060    -1.2110    -0.8907 C       0      f0     0.0091
   1311 C            8.9437     1.2808    -1.3546 C       0      f0     0.3419
   1312 O            9.0781     1.8542    -0.2471 O       0      f0    -0.5036
   1313 H           10.0924    -1.0477    -1.2147 H       0      f0     0.0140
   1314 H            9.8850     0.3013     1.9475 H       0      f0     0.0433
   1315 H           11.4734     1.6208    -1.0016 H       0      f0     0.0688
   1316 C           12.1148     1.6486    -2.1342 C       3      f3    -0.0059
   1317 H           12.2839    -0.4126    -0.8720 H       0      f0     0.0411
   1318 C           13.2170    -0.6118    -1.4221 C      56     f56     0.0241
   1319 O           13.6799     1.4112     0.3062 O      21     f21    -0.4598
   1320 C           13.9311    -1.8643     1.8139 C       0      f0     0.0641
   1321 C          -14.5228     3.0091    -1.1918 C      21     f21    -0.0856
   1322 C          -13.2043     3.0875    -1.9929 C      21     f21     0.0070
   1323 H          -12.9298     2.9252     0.6190 H       0      f0     0.0447
   1324 H          -12.5886     5.7825     1.6033 H       0      f0     0.0196
   1325 C          -12.8745     3.8309     0.6209 C       0      f0    -0.0112
   1326 C          -12.7284     4.7670     1.7799 C       0      f0    -0.0444
   1327 C          -12.4691     4.2934    -1.8667 C      59     f59    -0.0009
   1328 C          -12.0387     4.6845    -0.3604 C      59     f59    -0.0020
   1329 C          -10.8669     5.6611     0.0959 C      64     f64    -0.0062
   1330 C          -10.1663     3.1117     1.4446 C       0      f0     0.0124
   1331 C           -9.9807     5.2365     1.1911 C      64     f64    -0.0017
   1332 C           -9.5214     4.1422     1.8984 C       1      f1    -0.0067
   1333 C           -8.9971     2.1433    -1.1034 C       0      f0    -0.0055
   1334 C           -7.9533     2.5845    -1.3332 C       0      f0    -0.0043
   1335 H           -7.7508     3.7235     2.3775 H       0      f0     0.0294
   1336 C           -7.6228     5.4370    -2.1044 C      16     f16     0.0028
   1337 C           -6.9114     3.0795    -2.0645 C       0      f0    -0.0007
   1338 C           -5.6585     5.7854     0.0094 C     119    f119     0.0055
   1339 C           -5.5429     5.4922     1.4564 C     119    f119    -0.0245
   1340 C           -4.5118     5.1664    -0.6390 C     119    f119    -0.0229
   1341 H           -4.5435     5.4402    -1.9694 H       0      f0     0.0193
   1342 C           -4.2902     4.6517     1.6229 C     119    f119    -0.0119
   1343 C           -3.7771     4.3142     0.2011 C     119    f119     0.0105
   1344 C           -2.2218     4.3567     0.2156 C       0      f0    -0.0205
   1345 C           -1.7717     3.6032     1.0147 C       0      f0     0.0125
   1346 C           -1.7720     2.6821     2.0586 C       0      f0    -0.0112
   1347 H           -1.4345     5.0444    -0.4513 H       0      f0     0.0164
   1348 C            0.2544     2.4604    -1.7077 C       0      f0     0.0103
   1349 H            0.5721     5.7218    -0.3934 H       0      f0     0.0194
   1350 C            0.9202     2.3724     0.7950 C       0      f0    -0.0024
   1351 C            1.2220     3.7247     1.2580 C       0      f0    -0.0088
   1352 C            1.9935     4.2182    -1.6651 C       0      f0    -0.0070
   1353 C            2.0251     5.3756    -2.2552 C       0      f0    -0.0024
   1354 C            2.5379     4.3629     0.9243 C      90     f90    -0.0026
   1355 C            2.9780     4.1841    -0.4670 C      90     f90    -0.0074
   1356 H            3.2089     2.3228    -0.3007 H       0      f0     0.0238
   1357 C            3.5040     4.8718     1.9508 C      90     f90    -0.0201
   1358 C            4.4659     4.6424    -0.7382 C      90     f90    -0.0014
   1359 C            4.8814     5.1316     1.5934 C      90     f90    -0.0183
   1360 C            5.0743     4.4765    -2.1835 C       3      f3     0.0004
   1361 C            5.2505     5.1082     0.2294 C      90     f90     0.0030
   1362 H            7.0182     3.2220     2.0680 H       0      f0     0.0280
   1363 H            7.0203     5.5302    -1.3215 H       0      f0     0.0238
   1364 C            6.7662     5.2968    -0.2393 C       0      f0    -0.0090
   1365 C            7.7131     5.7773     0.2802 C       0      f0     0.0057
   1366 C           10.7990     6.1896    -0.6054 C       0      f0    -0.0129
   1367 H           11.1931     3.7533    -0.0016 H       0      f0     0.0517
   1368 C           11.4538     4.9743     0.0211 C       0      f0    -0.0076
   1369 C           12.7633     5.4147     0.6578 C      21     f21    -0.0136
   1370 C           13.2854     2.7421     1.0920 C      21     f21     0.2260
   1371 C           13.3959     5.0840    -1.8715 C      21     f21    -0.0013
   1372 C           13.4808     3.8851     0.4107 C      21     f21    -0.0582
   1373 C           13.9530     4.0250    -1.0053 C      21     f21     0.0403
   1374 C          -14.5727     7.3996    -1.9069 C       0      f0    -0.0027
   1375 H          -14.3273    10.0616     1.0661 H       0      f0     0.0129
   1376 C          -10.9562     7.0212    -0.7826 C      64     f64    -0.0027
   1377 C          -10.4541     7.9379     0.1689 C      64     f64     0.0305
   1378 C           -9.9927     8.7363     1.2206 C      64     f64    -0.0233
   1379 H           -9.6323     9.8200     1.0710 H       0      f0     0.0126
   1380 H           -9.9345    10.2109    -0.6311 H       0      f0     0.2555
   1381 C           -9.6332     7.5693     2.0581 C      64     f64     0.0028
   1382 O           -9.5503     9.9467    -1.5207 O       0      f0    -0.6136
   1383 C           -9.0064     6.2264     1.6756 C      64     f64    -0.0027
   1384 C           -7.0485     6.7443    -1.8276 C       0      f0     0.0092
   1385 C           -6.4738     6.9558    -0.4734 C       0      f0    -0.0236
   1386 H           -6.6255     7.8791    -0.1560 H       0      f0     0.0342
   1387 C           -3.8853     7.6625     1.4241 C       8      f8    -0.0200
   1388 C           -3.7615     8.7917     2.2224 C       8      f8     0.0086
   1389 H           -3.3502     7.4174     0.4772 H       0      f0     0.0219
   1390 C           -2.7749     9.5096     1.4185 C       0      f0    -0.0222
   1391 C           -2.4529     9.5075     0.0187 C       0      f0    -0.0022
   1392 C           -1.3725     8.6381    -0.5263 C       0      f0    -0.0085
   1393 C           -0.1427     7.8722    -0.4228 C       0      f0     0.0008
   1394 C            0.6103     6.7813     0.1537 C       0      f0    -0.0189
   1395 C            0.9931     7.0713     1.5793 C       0      f0     0.0066
   1396 C            1.9744     8.1499     1.7510 C       0      f0    -0.0053
   1397 C            3.0252     8.2066     0.9719 C       0      f0     0.0023
   1398 C            2.9609    10.0535    -1.8295 C      65     f65    -0.0037
   1399 C            3.5472     9.7602    -0.5297 C      65     f65     0.0054
   1400 H            4.5728     7.7126    -0.5200 H       0      f0     0.0191
   1401 C            3.8957     8.3659    -0.1396 C       0      f0    -0.0317
   1402 H            5.2106     8.5556     1.1721 H       0      f0     0.0219
   1403 C            6.1669     8.8948    -1.6622 C       0      f0    -0.0238
   1404 H            6.6612     7.9281    -1.9608 H       0      f0     0.0176
   1405 C            6.9531     8.6146     1.4989 C      66     f66    -0.0064
   1406 C            7.1933     9.8479    -0.7609 C       0      f0     0.0076
   1407 C            7.7987     9.4389     0.4148 C       0      f0    -0.0032
   1408 C            8.6710     6.4994     0.9390 C       0      f0     0.0043
   1409 C            8.8434    10.1897     0.9572 C       0      f0     0.0209
   1410 C            9.2350     7.3149     1.6485 C       0      f0    -0.0245
   1411 C            9.6774     7.5892    -1.8765 C       0      f0     0.0086
   1412 H            9.8922     7.6201    -0.7726 H       0      f0     0.0327
   1413 C            9.8505     6.2493    -1.7623 C       0      f0    -0.0153
   1414 H           10.3535     7.4258     1.4934 H       0      f0     0.0167
   1415 H           11.4526     7.0797    -0.4740 H       0      f0     0.0327
   1416 O           11.6254    10.1709    -1.8799 O     117    f117    -0.5069
   1417 H           12.0217     7.8725     1.7043 H       0      f0     0.0124
   1418 C           12.8290     8.4936     1.3965 C       0      f0    -0.0208
   1419 H           12.5400     6.1143     1.4571 H       0      f0     0.0111
   1420 C           13.1764     5.9610    -0.7803 C      21     f21     0.0009
   1421 C           13.5398     8.4987     0.1552 C       0      f0     0.0174
   1422 C           13.9652     7.3127    -0.8412 C       0      f0    -0.0020
   1423 C           14.4070     9.7974     0.1938 C       0      f0     0.0017
   1424 H          -12.6458    10.9061     1.5162 H       0      f0     0.0094
   1425 C          -13.2923    13.8062     1.7963 C     120    f120    -0.0045
   1426 C          -11.8230    13.4817     1.6628 C     120    f120     0.0033
   1427 C          -11.5816    12.3059     2.1902 C     120    f120    -0.0229
   1428 H           -9.3108    13.2855     0.5586 H       0      f0     0.0202
   1429 C           -9.2388    14.1541     1.2337 C       2      f2    -0.0023
   1430 H           -7.7626    10.8365     1.0404 H       0      f0     0.0292
   1431 H           -7.0918     9.9599    -1.8108 H       0      f0     0.0617
   1432 C           -7.3530    10.1625     1.7211 C       0      f0    -0.0360
   1433 H           -6.1730    11.1975    -0.6907 H       0      f0     0.0253
   1434 C           -5.9740    10.0952     1.9959 C       8      f8     0.0041
   1435 C           -5.5025    11.7042    -0.0342 C      67     f67    -0.0182
   1436 C           -5.3580    11.2889     1.3623 C      67     f67     0.0007
   1437 C           -4.1141    13.5684     2.0981 C     143    f143    -0.0200
   1438 C           -4.2650    11.9895    -0.7186 C      67     f67     0.0090
   1439 C           -3.1025    12.4750     0.0529 C      67     f67    -0.0247
   1440 C           -3.1163    13.0308     1.3218 C     121    f121     0.0065
   1441 H           -2.4822    12.3670    -0.7108 H       0      f0     0.0199
   1442 C           -1.8224    13.1919     2.1164 C     121    f121     0.0003
   1443 H           -2.1165    10.2215     1.9688 H       0      f0     0.0228
   1444 H           -0.8913    13.3064    -0.0168 H       0      f0     0.0209
   1445 C           -0.3982    13.2903     1.6590 C       0      f0    -0.0180
   1446 C           -0.5159   -13.9634     0.4215 C       0      f0    -0.0345
   1447 H           -0.3304    11.1748    -1.1579 H       0      f0     0.0175
   1448 C            0.0735    11.7507     1.6971 C       0      f0    -0.0109
   1449 H            0.5051    13.7874     1.8524 H       0      f0     0.0167
   1450 C            0.7512    11.0944    -0.7511 C      65     f65    -0.0187
   1451 C            1.0088    11.3342     0.6159 C      65     f65    -0.0040
   1452 C            1.7377    10.7682    -1.8802 C      65     f65    -0.0038
   1453 C            2.3650    10.9577     1.0250 C      65     f65    -0.0008
   1454 H            2.4193    12.7129    -1.2755 H       0      f0     0.0189
   1455 C            3.5785    11.0490     0.1381 C      65     f65    -0.0059
   1456 C            3.4039    13.3478    -1.2733 C      60     f60    -0.0189
   1457 C            4.1729    12.2834    -0.4653 C      60     f60    -0.0035
   1458 C            5.4704    12.6551     0.0614 C      60     f60    -0.0056
   1459 C            5.6408    13.1332     1.4634 C      40     f40     0.0498
   1460 C            6.2675    13.5178    -0.8532 C      60     f60     0.0132
   1461 C            6.7692    12.6822    -2.0085 C       0      f0    -0.0047
   1462 C            7.8831    10.5009    -1.8428 C       0      f0    -0.0060
   1463 C            8.0963    11.9381    -1.9012 C       0      f0     0.0040
   1464 C            9.1922    12.8153    -1.3651 C       0      f0     0.0204
   1465 C            9.6803    10.4935     1.8384 C       0      f0     0.0124
   1466 C           10.0650    13.5879    -1.0580 C       0      f0    -0.0125
   1467 C           11.2020    13.5584    -0.0381 C       0      f0     0.0172
   1468 H           11.4955    11.2240    -0.0936 H       0      f0     0.0872
   1469 C           11.6728    12.1853     0.4688 C       0      f0    -0.0215
   1470 C           12.6851    12.1115     1.2534 C       0      f0    -0.0035
   1471 C           13.0558    10.5366    -1.9220 C     117    f117     0.2444
   1472 C           13.7237    11.9388     2.1550 C       0      f0    -0.0039
   1473 C           14.0444    10.6526    -0.7661 C       0      f0    -0.0598
   1474 H           14.7087    11.5336    -0.6596 H       0      f0     0.0248
   1475 C          -13.5169   -10.9213     5.8791 C       0      f0     0.0367
   1476 C          -11.8496   -11.9205     2.4341 C       0      f0     0.0265
   1477 O          -10.8655   -11.8408     5.3754 O       2      f2    -0.5355
   1478 C          -10.7737   -12.7601     2.6343 C       2      f2     0.0477
   1479 C          -10.6294   -10.9515     6.4327 C       2      f2     0.2680
   1480 C           -9.5335   -11.8207     4.5985 C       2      f2     0.2345
   1481 C           -9.5223   -12.4777     3.4651 C       2      f2    -0.0326
   1482 C           -8.4491   -10.8808     4.7871 C       2      f2    -0.0489
   1483 C           -8.4353   -10.2707     6.1270 C       2      f2     0.0292
   1484 H           -8.6913   -12.4644     6.3307 H       0      f0     0.0312
   1485 C           -8.3546   -12.7598     2.6869 C       2      f2     0.0227
   1486 C           -7.1596   -11.1230     4.2981 C       2      f2     0.0117
   1487 C           -7.2250   -11.8515     3.0193 C       2      f2     0.0226
   1488 C           -5.8899   -10.4815     4.4878 C       2      f2    -0.0016
   1489 C           -5.8086   -13.9634     6.2410 C      17     f17     0.0053
   1490 H           -5.2624   -13.5564     4.4855 H       0      f0     0.0173
   1491 H           -4.2715   -13.5109     2.2591 H       0      f0     0.0109
   1492 C           -4.9100   -11.3140     2.3256 C       2      f2    -0.0054
   1493 C           -4.7165   -13.2833     5.3746 C       0      f0    -0.0216
   1494 C           -4.7504   -10.7038     3.6405 C       2      f2    -0.0011
   1495 C           -3.8688   -12.2477     5.9536 C      91     f91     0.0018
   1496 C           -3.2488   -10.7653     4.1450 C       0      f0    -0.0210
   1497 H           -2.7984   -10.1495     3.3284 H       0      f0     0.0205
   1498 C           -2.7023   -11.5586     5.2639 C      91     f91    -0.0035
   1499 C           -1.4837   -11.5371     6.2527 C      91     f91    -0.0100
   1500 H           -1.1077   -13.7037     4.9838 H       0      f0     0.0174
   1501 H           -0.1372   -12.0030     4.7665 H       0      f0     0.0160
   1502 C           -0.5472   -10.4342     6.4908 C       0      f0    -0.0040
   1503 C            0.1790   -10.8669     5.1356 C       0      f0    -0.0139
   1504 C            0.3944   -11.6977     2.3565 C       0      f0    -0.0036
   1505 H            1.5254   -13.4026     4.9767 H       0      f0     0.0206
   1506 C            1.3019   -12.3081     3.1548 C       0      f0    -0.0053
   1507 C            1.9453   -12.9539     4.0467 C       0      f0    -0.0311
   1508 H            1.7562   -10.7120     4.0864 H       0      f0     0.0237
   1509 C            3.3343   -13.2999     3.5817 C      40     f40     0.0256
   1510 C            3.2910   -13.9501     2.2820 C      40     f40    -0.0328
   1511 C            3.5471   -12.5574     5.8665 C      30     f30    -0.0476
   1512 C            4.1335   -13.9567     5.8238 C      69     f69     0.0710
   1513 C            4.2079   -10.2266     5.4891 C      30     f30    -0.0517
   1514 C            4.4563   -11.5935     5.4520 C      30     f30     0.2363
   1515 O            5.7687   -12.0297     4.9000 O      30     f30    -0.4939
   1516 C            6.1621   -10.6198     4.5384 C      30     f30     0.2213
   1517 H            6.5883   -12.3810     7.2371 H       0      f0     0.0162
   1518 C            7.4740   -10.2751     4.1589 C       0      f0    -0.0274
   1519 C            8.7479   -12.7351     2.4441 C      28     f28     0.2233
   1520 C            9.7493   -13.3200     4.5093 C      28     f28    -0.0353
   1521 C            9.5885   -12.3012     3.4872 C      28     f28    -0.0265
   1522 C           10.4668   -13.2309     5.8119 C       0      f0     0.0415
   1523 C           10.4418   -10.9376     3.6827 C      61     f61     0.0105
   1524 H           11.3382   -12.5900     5.9581 H       0      f0     0.0248
   1525 C           11.8699   -10.9960     3.4465 C      62     f62    -0.0077
   1526 C           13.2453   -10.6013     4.1039 C      70     f70    -0.0066
   1527 C           13.3639   -10.9415     5.4813 C      70     f70    -0.0018
   1528 C           13.6886   -12.2992     6.2308 C       0      f0    -0.0326
   1529 H           13.6488   -13.1343     5.4215 H       0      f0     0.0279
   1530 C          -14.6132    -9.0087     6.1650 C     122    f122    -0.0096
   1531 H          -14.5064    -7.9064     4.1409 H       0      f0     0.0189
   1532 C          -13.9850    -8.8068     3.9035 C      70     f70    -0.0127
   1533 H          -13.7731    -6.7982     2.4251 H       0      f0     0.0204
   1534 C          -13.8221    -6.3152     3.5445 C       0      f0    -0.0284
   1535 C          -13.7268    -9.5678     5.2818 C      70     f70     0.0079
   1536 C          -13.2217    -8.9312     2.7640 C       0      f0     0.0023
   1537 C          -12.5407    -6.4520     4.1832 C       0      f0     0.0520
   1538 C          -11.9088    -8.5128     2.5628 C      14     f14     0.0175
   1539 C          -11.6058    -7.4630     3.5595 C      14     f14    -0.0435
   1540 C          -10.2556    -7.7023     4.0873 C      14     f14     0.2350
   1541 O           -9.8333    -7.0263     5.3864 O      14     f14    -0.5208
   1542 C           -9.2364    -8.3465     3.2794 C      14     f14    -0.0832
   1543 C           -8.3963    -7.5792     5.1175 C      14     f14     0.2063
   1544 C           -8.0078    -8.1900     4.0060 C      14     f14    -0.0161
   1545 C           -7.3906    -6.7240     5.3439 C      14     f14    -0.0851
   1546 C           -7.1185    -9.7613     6.5432 C       2      f2    -0.0204
   1547 C           -6.7164    -7.9101     3.3204 C      14     f14    -0.0319
   1548 C           -6.5848    -8.6813     2.2124 C      14     f14     0.1052
   1549 C           -6.1647    -7.1757     4.4926 C      14     f14     0.0204
   1550 C           -6.0582    -9.7056     5.7060 C       2      f2     0.0025
   1551 C           -4.9510    -7.2630     4.9657 C       0      f0     0.0168
   1552 C           -3.9128    -7.2208     5.7602 C       0      f0     0.0053
   1553 C           -3.6712    -8.6503     6.1766 C       0      f0     0.0019
   1554 H           -2.9846    -6.5622     5.9431 H       0      f0     0.0349
   1555 H           -1.2750    -9.2991     3.6036 H       0      f0     0.0182
   1556 C           -0.0694    -7.6787     3.2082 C       0      f0    -0.0784
   1557 C           -0.4047    -6.4690     2.8114 C       0      f0     0.2407
   1558 C           -0.1482    -8.9186     3.7904 C       0      f0     0.0108
   1559 H            0.5994    -5.9795     2.7144 H       0      f0    -0.0061
   1560 C            0.9449   -10.0351     4.2561 C       0      f0    -0.0311
   1561 H            1.6866    -8.9677     4.3986 H       0      f0     0.0181
   1562 C            3.0417   -10.0507     6.2172 C      30     f30    -0.0239
   1563 H            2.6506    -9.0955     6.2054 H       0      f0     0.0196
   1564 C            4.3535    -6.9527     5.4414 C       0      f0    -0.0091
   1565 C            5.1552    -7.6041     6.0021 C       0      f0    -0.0022
   1566 C            5.4818    -9.6461     5.2785 C      30     f30    -0.0404
   1567 C            6.0452    -8.5767     6.1519 C       0      f0    -0.0121
   1568 C            7.7606    -8.2208     2.5693 C       0      f0     0.0006
   1569 C            7.9260    -8.0674     3.9003 C       0      f0    -0.0148
   1570 C            8.5379    -9.6427     4.0304 C       0      f0     0.0159
   1571 H            9.1351    -5.8712     5.3841 H       0      f0     0.0235
   1572 C            9.4134   -10.1001     2.9235 C      61     f61    -0.0018
   1573 C           11.0449    -6.9482     5.8034 C       0      f0    -0.0107
   1574 H           11.0329    -9.4533     6.3820 H       0      f0     0.0314
   1575 H           12.0759    -7.3368     5.2772 H       0      f0     0.0124
   1576 C           13.2102    -8.5225     2.7433 C      62     f62    -0.0116
   1577 H           13.4228    -6.4975     5.2168 H       0      f0     0.0025
   1578 C           13.5603    -9.5959     6.1417 C     122    f122    -0.0058
   1579 C           14.0942    -9.3944     3.4249 C      70     f70    -0.0056
   1580 C          -14.2745    -1.8870     2.3303 C       0      f0     0.0211
   1581 H          -13.7968    -5.8854     6.4533 H       0      f0     0.0100
   1582 O          -13.3019    -3.1244     5.8651 O      41     f41    -0.4417
   1583 C          -12.1865    -4.0211     5.3812 C      41     f41     0.2297
   1584 O          -12.0028    -3.0624     2.1413 O       0      f0    -0.5092
   1585 C          -11.9616    -5.2152     4.6938 C       0      f0    -0.0430
   1586 C          -11.0560    -3.1559     5.2373 C      41     f41    -0.0613
   1587 H          -10.9030    -4.9371     4.6613 H       0      f0     0.0597
   1588 C          -10.6854    -2.6746     2.5352 C       0      f0     0.2723
   1589 C           -9.7052    -3.5545     4.8429 C      41     f41    -0.0131
   1590 C           -9.7111    -3.5078     3.4652 C       0      f0    -0.0474
   1591 C           -9.0713    -2.1985     5.0008 C      41     f41     0.2142
   1592 C           -8.4817    -4.1344     3.0046 C       0      f0     0.0060
   1593 H           -7.8442    -5.8046     3.7397 H       0      f0     0.0427
   1594 C           -7.4541    -5.7879     6.3749 C       0      f0     0.2171
   1595 C           -7.3004    -5.0428     3.3412 C       0      f0    -0.0423
   1596 H           -6.3503    -4.5893     3.7852 H       0      f0     0.0466
   1597 H           -3.6902    -5.4218     2.6237 H       0      f0     0.0785
   1598 H           -2.9664    -3.2220     4.0134 H       0      f0     0.0439
   1599 C           -1.9146    -3.3398     4.5717 C       0      f0     0.0063
   1600 O           -1.4844    -5.4071     2.6320 O       0      f0    -0.5153
   1601 C           -1.5494    -4.2890     5.3589 C       0      f0     0.0382
   1602 C           -0.9213    -4.7564     6.5402 C       0      f0    -0.0220
   1603 H           -0.5242    -5.8231     6.7269 H       0      f0     0.0240
   1604 C            0.7009    -3.8786     2.8655 C       0      f0     0.0370
   1605 C            1.6847    -3.4810     3.3821 C       0      f0    -0.0075
   1606 C            1.7836    -4.5994     6.2840 C      92     f92    -0.0235
   1607 C            2.2056    -5.8780     6.2956 C      92     f92     0.0028
   1608 C            2.4474    -3.4686     5.6275 C      92     f92     0.0030
   1609 C            2.6686    -3.8641     4.3517 C      92     f92     0.0094
   1610 C            3.2006    -2.5346     6.4870 C       0      f0     0.0017
   1611 C            3.3613    -5.9873     5.2255 C      92     f92    -0.0024
   1612 C            3.4200    -4.9810     4.2166 C      92     f92     0.0027
   1613 C            4.5424    -4.8201     3.1262 C       0      f0    -0.0373
   1614 H            4.6353    -3.6625     2.9900 H       0      f0     0.1125
   1615 O            5.7289    -2.1735     2.4816 O       0      f0    -0.4698
   1616 C            5.9409    -5.3838     3.4744 C       0      f0    -0.0053
   1617 H            6.1310    -5.5920     4.5175 H       0      f0     0.0214
   1618 C            6.8523    -5.4023     2.5117 C       0      f0     0.0179
   1619 H            5.8768    -3.9148     6.1098 H       0      f0     0.0264
   1620 C            9.0354    -3.4010     2.3961 C       0      f0     0.0160
   1621 C            9.0763    -2.8825     6.0442 C       0      f0    -0.0156
   1622 C            9.5012    -3.1304     4.7984 C       0      f0     0.0002
   1623 C            9.8931    -3.1508     3.5248 C       0      f0    -0.0132
   1624 C           10.1126    -6.1780     5.1731 C       0      f0    -0.0366
   1625 H           10.1376    -5.8845     4.1023 H       0      f0     0.0194
   1626 C           10.9711    -2.2350     3.1934 C       0      f0    -0.0003
   1627 H           11.9969    -4.4497     4.6009 H       0      f0     0.0109
   1628 C           12.7920    -4.3389     5.0917 C      31     f31     0.0206
   1629 C           13.1163    -3.0219     5.5663 C      31     f31    -0.0553
   1630 C           13.8299    -5.4095     5.1631 C      31     f31    -0.0141
   1631 C           14.0052    -4.9752     2.6965 C       0      f0    -0.0119
   1632 C           14.4694    -5.5035     3.8848 C       0      f0     0.0268
   1633 C          -14.2009     1.7968     3.4955 C       9      f9     0.5975
   1634 C          -13.3942     0.9750     6.0979 C       0      f0     0.0583
   1635 C          -13.2706    -0.4866     6.1164 C       0      f0     0.0536
   1636 C          -13.0016    -1.7674     2.5877 C       0      f0     0.2492
   1637 O          -12.8228     1.6431     3.2492 O       0      f0    -0.6137
   1638 C          -12.5901    -1.5678     5.9595 C      41     f41     0.0996
   1639 C          -12.5869    -0.6306     2.6523 C       0      f0    -0.1219
   1640 C          -12.0714     0.4441     2.7092 C       0      f0     0.3488
   1641 C          -11.3147    -1.6726     5.4063 C      41     f41     0.2455
   1642 O          -10.0587    -0.9849     5.3569 O      41     f41    -0.4992
   1643 C           -9.7394    -1.6817     2.0861 C       0      f0    -0.0819
   1644 H           -9.1639    -0.9495     2.8847 H       0      f0     0.0647
   1645 C           -7.9213    -2.0584     4.2678 C       0      f0    -0.0702
   1646 C           -6.9270    -1.8060     3.3856 C      20     f20     0.2435
   1647 O           -6.0772    -0.5592     3.6152 O      20     f20    -0.5126
   1648 C           -6.0603     1.8425     5.9417 C       0      f0    -0.0004
   1649 H           -6.1737     0.9599     5.5084 H       0      f0     0.0744
   1650 C           -5.4611    -0.6087     2.2976 C      20     f20     0.1878
   1651 H           -4.0376    -0.1961     4.2875 H       0      f0     0.0726
   1652 H           -3.6443     2.7677     2.5583 H       0      f0     0.0266
   1653 C           -3.5060     0.1055     3.3841 C       0      f0    -0.0517
   1654 C           -2.8924     2.0854     2.6206 C       0      f0     0.0085
   1655 C           -2.4073     1.0800     3.6334 C       0      f0     0.0068
   1656 C           -1.5459    -1.8280     6.3388 C       0      f0    -0.0082
   1657 C           -1.4449    -1.7700     4.9150 C       0      f0    -0.0061
   1658 C           -1.4259     0.5062     4.6163 C       0      f0     0.0024
   1659 C           -1.1880     1.6712     5.3373 C       0      f0    -0.0511
   1660 H           -0.6732    -1.6687     2.5694 H       0      f0     0.0321
   1661 C           -0.7046    -0.7927     4.2404 C       0      f0    -0.0014
   1662 C           -0.0618    -0.9027     2.9626 C       0      f0    -0.0210
   1663 C            0.4894     0.1942     2.1611 C       0      f0    -0.0023
   1664 H            2.0685    -0.1079     4.4926 H       0      f0     0.0249
   1665 C            2.5814     1.4742     5.6904 C      32     f32    -0.0018
   1666 C            2.8560     0.1923     5.1262 C       0      f0    -0.0175
   1667 C            3.8698     1.6984     6.2455 C      32     f32     0.0001
   1668 C            4.1037    -0.5560     5.2517 C     123    f123    -0.0036
   1669 C            4.4006    -1.5694     6.0295 C     123    f123     0.0078
   1670 C            5.1002    -0.3001     4.3046 C     123    f123     0.0528
   1671 C            5.2517     0.8641     3.4231 C       0      f0     0.0044
   1672 C            5.6965    -1.5899     6.0636 C     123    f123     0.0060
   1673 C            6.1452    -0.6832     5.1747 C     123    f123     0.0124
   1674 C            6.4316     0.9594     2.4155 C       0      f0     0.0328
   1675 C            7.4197     0.6183     6.2416 C       0      f0    -0.0054
   1676 C            7.5352    -0.0765     5.0586 C       0      f0    -0.0208
   1677 H            7.9474     0.1349     4.0697 H       0      f0     0.0241
   1678 C            9.6735     1.9180     3.5158 C     124    f124     0.0067
   1679 C           10.2294     0.6889     3.0717 C     124    f124    -0.0302
   1680 C           11.0345     0.1496     4.1216 C     124    f124     0.0114
   1681 C           11.2596     1.4047     4.9107 C     124    f124     0.0086
   1682 C           11.6454    -1.2645     4.1603 C       0      f0    -0.0331
   1683 H           11.4867     1.1617     6.0462 H       0      f0     0.0795
   1684 H           12.2199     0.7537     2.1200 H       0      f0     0.0503
   1685 C           12.5826    -1.7062     5.1385 C      31     f31     0.2098
   1686 C           12.8478     1.2492     3.0388 C       9      f9     0.2188
   1687 C           12.6557     1.8044     4.3770 C       9      f9    -0.0719
   1688 O           12.9493    -0.8416     6.4599 O      31     f31    -0.4722
   1689 O           14.3764     0.8029     2.9207 O       9      f9    -0.5148
   1690 C          -14.4778     2.2020     4.6262 C       9      f9    -0.2160
   1691 C          -13.5496     2.3627     5.7727 C       9      f9     0.0942
   1692 H          -12.4255     4.2710     2.6355 H       0      f0     0.0471
   1693 H          -11.7540     4.7577     4.4938 H       0      f0     0.0227
   1694 H          -11.8784     2.9396     5.1644 H       0      f0     0.0685
   1695 C          -11.5810     3.9896     5.3371 C       0      f0    -0.0610
   1696 H          -10.6848     3.8485     5.1320 H       0      f0     0.0312
   1697 C           -8.9469     5.7313     6.1502 C      71     f71    -0.0233
   1698 C           -8.7466     5.7326     2.9391 C      71     f71     0.0000
   1699 C           -8.6629     4.7377     5.3653 C      71     f71     0.0422
   1700 C           -8.5255     3.9855     4.4775 C      71     f71     0.0205
   1701 C           -8.4264     4.3579     2.9389 C      71     f71    -0.0153
   1702 H           -6.4389     5.0316     1.7737 H       0      f0     0.0216
   1703 O           -6.1444     5.1357     6.1751 O      33     f33    -0.4926
   1704 C           -4.8000     2.7647     5.8763 C      33     f33     0.0080
   1705 C           -4.8492     4.3267     5.9111 C      33     f33     0.1683
   1706 C           -3.6818     4.9842     6.2769 C      33     f33     0.1878
   1707 H           -4.4581     4.0983     2.6738 H       0      f0     0.0280
   1708 C           -3.5729     2.4128     5.5691 C      33     f33    -0.0439
   1709 C           -2.2992     2.7960     5.5990 C      33     f33     0.2176
   1710 O           -2.3138     4.3092     5.9064 O      33     f33    -0.4875
   1711 H           -0.6686     2.2671     2.3576 H       0      f0     0.0216
   1712 C            0.0727     2.3965     5.5686 C       0      f0     0.0211
   1713 C            0.5933     2.9031     4.3826 C       0      f0     0.0031
   1714 C            0.9157     3.7891     3.3839 C       0      f0     0.0019
   1715 C            0.7221     4.6472     2.1862 C       0      f0     0.0037
   1716 H            3.5367     4.9755     3.0483 H       0      f0     0.0165
   1717 C            4.9477     2.1780     3.6760 C       0      f0    -0.0194
   1718 H            5.0294     3.4034     3.2471 H       0      f0     0.0144
   1719 C            4.7149     2.2139     5.1172 C      32     f32     0.0002
   1720 C            5.3551     3.5400     5.5129 C      32     f32    -0.0232
   1721 H            5.6718     5.2762     2.4155 H       0      f0     0.0126
   1722 H            6.0395     4.2743     4.8032 H       0      f0     0.0151
   1723 C            7.3289     2.1129     2.3122 C       0      f0    -0.0002
   1724 H            7.5052     5.5614     3.0458 H       0      f0     0.0185
   1725 C            8.1922     5.1734     3.7722 C      93     f93    -0.0287
   1726 C            8.3855     5.2651     5.1418 C      93     f93     0.0025
   1727 C            8.5499     2.7168     2.6646 C       0      f0     0.0264
   1728 C            8.9062     4.1399     2.9028 C      93     f93     0.0010
   1729 C            9.4931     3.2299     5.9177 C       0      f0     0.0128
   1730 C            9.9172     2.1326     4.8783 C     124    f124    -0.0111
   1731 C            9.7667     4.6941     5.6204 C      93     f93    -0.0152
   1732 H           10.0091     5.5020     6.2675 H       0      f0     0.0215
   1733 C           10.3914     4.1352     2.9705 C      93     f93    -0.0043
   1734 C           10.8100     4.8118     4.4149 C      93     f93     0.0022
   1735 C           11.3987     3.3859     2.5050 C       0      f0     0.0243
   1736 C           11.9200     5.4812     4.4714 C       0      f0     0.0002
   1737 C           12.5014     2.5640     2.3731 C       0      f0    -0.0786
   1738 O           13.4424     2.9035     6.5202 O       9      f9    -0.4828
   1739 C           13.6970     2.2980     5.1456 C       9      f9     0.3081
   1740 C          -14.3000     7.8003     5.5151 C       9      f9     0.0055
   1741 C          -13.3475     6.7291     6.0309 C       9      f9    -0.0078
   1742 C          -11.5551    10.1034     5.7900 C       1      f1    -0.0599
   1743 H          -10.9615     9.6046     2.9269 H       0      f0     0.0150
   1744 C          -10.6366     9.0051     5.0113 C       1      f1    -0.0080
   1745 C          -10.5053     8.9335     3.7322 C       1      f1    -0.0200
   1746 C          -10.1780     7.9523     5.6897 C       1      f1     0.0068
   1747 C           -9.6536     7.9324     3.2424 C       1      f1    -0.0038
   1748 C           -9.5463     6.7857     5.3137 C      71     f71    -0.0029
   1749 C           -9.1306     6.7172     3.9733 C      71     f71    -0.0017
   1750 H           -8.2080     9.4945     2.3134 H       0      f0     0.0222
   1751 C           -6.5299     8.8769     6.2330 C       8      f8     0.0089
   1752 H           -6.1065     6.3737     4.0283 H       0      f0     0.0520
   1753 C           -5.3746     7.0873     3.4273 C       8      f8    -0.0229
   1754 C           -5.6029     9.1278     5.1722 C       8      f8    -0.0063
   1755 C           -5.2880     8.4198     4.0638 C       8      f8     0.0062
   1756 C           -4.8872     9.4257     3.0389 C       8      f8    -0.0037
   1757 C           -4.8000     6.6512     2.2311 C       8      f8     0.0141
   1758 H           -0.7282     9.6097     4.1871 H       0      f0     0.0298
   1759 C            1.4074     6.0582     2.6188 C       0      f0    -0.0034
   1760 H            1.7845     6.6186     6.0863 H       0      f0     0.0272
   1761 H            1.4833     9.1221     3.4004 H       0      f0     0.0370
   1762 C            1.6665     6.6397     3.8707 C       0      f0     0.0100
   1763 C            2.0838     7.1998     5.1460 C       0      f0    -0.0100
   1764 C            2.5573     9.1136     3.0268 C       0      f0    -0.0016
   1765 C            3.2369     8.0903     5.1309 C       0      f0     0.0152
   1766 C            3.7160     8.9560     3.9961 C       0      f0     0.0183
   1767 C            5.2118     8.9922     3.5257 C      66     f66    -0.0032
   1768 C            5.6135     8.8209     2.1907 C      66     f66    -0.0204
   1769 C            6.3083     9.5342     4.4304 C      66     f66    -0.0032
   1770 H            6.7960     6.7024     4.6261 H       0      f0     0.0203
   1771 C            7.4527     6.3847     5.4160 C       0      f0    -0.0248
   1772 C            7.6735     9.4930     4.4562 C      66     f66    -0.0015
   1773 C            8.3005     8.1281     3.6853 C      66     f66    -0.0273
   1774 C            8.1238     8.1922     2.3939 C      66     f66     0.0053
   1775 H            9.0955     7.3788     3.7669 H       0      f0     0.0188
   1776 H            9.0637     7.3020     6.9525 H       0      f0     0.0196
   1777 C            9.7536     9.4669     6.3100 C       0      f0    -0.0250
   1778 C           13.0487     6.4223     4.4862 C       0      f0    -0.0272
   1779 C           13.2764     9.3755     2.8037 C       0      f0    -0.0196
   1780 H           12.8302     8.6255     3.3540 H       0      f0     0.0128
   1781 H           13.0851     7.0783     3.7018 H       0      f0     0.0110
   1782 C           14.0733     6.7400     5.5331 C       9      f9    -0.0046
   1783 C          -14.7010     9.1793     5.9912 C     125    f125    -0.0060
   1784 C          -14.3399    10.1381     4.9737 C     125    f125    -0.0108
   1785 C          -14.1569    13.0890     2.5814 C     120    f120     0.0022
   1786 C          -12.9805    11.8168     2.4221 C     120    f120    -0.0071
   1787 C          -12.7539    10.4707     4.7311 C       0      f0     0.0202
   1788 H          -13.2800    13.3082     6.3982 H       0      f0     0.0412
   1789 C          -12.5334    11.1321     3.6617 C       0      f0    -0.0116
   1790 H          -10.4643    12.1640     2.3200 H       0      f0     0.0155
   1791 H          -10.8588    10.9693     6.0132 H       0      f0     0.0239
   1792 H          -10.5315    12.4418     5.6565 H       0      f0     0.0172
   1793 C           -9.7508    13.0367     6.2848 C      17     f17    -0.0129
   1794 C           -8.4676    13.5550     5.8475 C      17     f17     0.0063
   1795 H           -7.6650    12.3321     4.1821 H       0      f0     0.0187
   1796 C           -7.4438    13.0986     4.8570 C      17     f17    -0.0266
   1797 C           -6.1981    13.0860     5.5774 C      17     f17    -0.0024
   1798 C           -5.9538    11.6303     5.9855 C       8      f8    -0.0023
   1799 C           -5.2203    10.6569     5.2828 C       8      f8    -0.0023
   1800 C           -5.0350    12.3353     2.1880 C     143    f143    -0.0043
   1801 C           -4.6742    10.7640     4.0085 C       8      f8    -0.0044
   1802 C           -4.3554    11.8611     3.2311 C     143    f143    -0.0022
   1803 H           -4.1598   -14.1420     3.7153 H       0      f0     0.0167
   1804 C           -3.6545    13.1554     3.5156 C     143    f143    -0.0124
   1805 H           -2.1003    13.0624     6.4978 H       0      f0     0.0235
   1806 C           -2.2834    12.0897     5.8538 C       0      f0    -0.0143
   1807 C           -2.1448    13.3603     3.3347 C     121    f121     0.0043
   1808 C           -1.6351    11.2075     5.0426 C       0      f0     0.0115
   1809 C           -0.9220    13.9628     4.0591 C       0      f0    -0.0066
   1810 C           -0.7049    10.6877     4.0183 C       0      f0     0.0035
   1811 C           -0.2162    11.1631     2.8395 C       0      f0    -0.0008
   1812 C            0.2639    13.3163     4.0934 C       0      f0    -0.0290
   1813 C            1.4965    12.7383     4.2111 C     147    f147     0.1234
   1814 O            2.1006    11.5090     5.1064 O     147    f147    -0.4422
   1815 C            2.5375    10.6286     2.6543 C       0      f0    -0.0445
   1816 C            2.3468    11.5780     3.6187 C     147    f147     0.1730
   1817 C            3.9848    14.1134     4.4921 C      69     f69     0.0086
   1818 C            4.7052    13.9887     2.1838 C      40     f40     0.0117
   1819 C            4.7977    12.1459     6.5509 C     126    f126     0.0344
   1820 C            4.8369    13.6306     3.5951 C      69     f69     0.0406
   1821 C            5.5839    12.3952     3.9402 C      69     f69     0.0234
   1822 C            5.6085    11.8065     5.3125 C     126    f126     0.0093
   1823 C            5.6893    12.0806     2.4504 C      40     f40    -0.0092
   1824 C            5.9246    10.3727     5.6564 C     126    f126    -0.0011
   1825 H            5.9715    10.9764     2.5564 H       0      f0     0.0291
   1826 O            8.1978    14.1076     2.5840 O      28     f28    -0.4611
   1827 C            8.6349    12.6812     4.3608 C       0      f0    -0.0097
   1828 C            8.5788    11.3968     4.8342 C       0      f0     0.0048
   1829 C            8.8593    10.1774     5.1106 C       0      f0    -0.0125
   1830 C            8.9197    13.9238     3.9213 C      28     f28     0.2171
   1831 H           10.5633    10.1758     6.6606 H       0      f0     0.0227
   1832 C           10.4721    11.1637     2.7749 C       0      f0    -0.0260
   1833 H           10.5451    10.1393     3.4284 H       0      f0     0.0178
   1834 C           10.5677    13.7180     6.0878 C       0      f0     0.0355
   1835 H           10.6927    12.2271     2.9440 H       0      f0     0.0317
   1836 C           11.9950    13.8808     5.1102 C       0      f0    -0.0097
   1837 C           12.9729    13.2925     4.9349 C       0      f0     0.0510
   1838 C           13.5218    10.6188     3.0384 C       0      f0    -0.0155
   1839 H           13.3304    10.8892     3.9993 H       0      f0     0.0212
   1840 C           13.9733    12.4145     4.6654 C       0      f0     0.0064
   1841 C           14.0959    12.7493     3.2407 C       0      f0    -0.0184
   1842 C           14.6539    11.5230     5.5211 C     125    f125    -0.0095
   1843 C          -13.5711   -11.6496     7.1644 C       0      f0    -0.0364
   1844 H          -12.6727   -12.2804     6.8213 H       0      f0     0.0643
   1845 H          -12.9314   -13.4314     9.1738 H       0      f0     0.0217
   1846 C          -11.8207   -13.7006     8.7806 C      17     f17    -0.0228
   1847 H          -11.6397   -10.7754     7.0085 H       0      f0    -0.0022
   1848 C          -11.2653   -12.7795    10.8620 C      72     f72    -0.0026
   1849 C          -10.7582   -13.0812     9.5195 C      17     f17     0.0037
   1850 C           -9.5481   -10.3863     7.0917 C       2      f2    -0.0775
   1851 C           -9.3268   -12.6169     9.0249 C      17     f17    -0.0110
   1852 C           -9.2416   -13.2681     7.8149 C      17     f17     0.0062
   1853 C           -8.9490   -11.2004     9.2707 C       0      f0     0.0040
   1854 C           -8.1858   -13.3923     6.6294 C      17     f17    -0.0157
   1855 C           -6.6860   -13.4991     7.3440 C      17     f17    -0.0339
   1856 H           -6.5714   -14.0838     8.2480 H       0      f0     0.0215
   1857 H           -6.3052   -12.3948     7.5163 H       0      f0     0.0189
   1858 H           -5.4456   -12.2827    10.5606 H       0      f0     0.0165
   1859 C           -4.3781   -10.6012     7.3854 C       0      f0    -0.0248
   1860 C           -3.8303   -11.8829     7.3486 C      91     f91     0.0013
   1861 H           -2.2770   -12.8388     9.2617 H       0      f0     0.0187
   1862 C           -2.7459   -12.6533     8.2057 C      91     f91    -0.0210
   1863 C           -1.5872   -12.6596     7.3339 C      91     f91    -0.0002
   1864 C           -0.6920   -13.5542     7.6355 C       0      f0    -0.0149
   1865 C            0.8330   -14.1430     9.3725 C      73     f73     0.0247
   1866 C            1.2761   -12.9315     9.5157 C      73     f73    -0.0133
   1867 H            1.2795   -12.4018     8.4651 H       0      f0     0.0228
   1868 H            1.5687   -10.6149     7.4122 H       0      f0     0.0169
   1869 H            1.8527   -13.2737     6.9508 H       0      f0     0.0260
   1870 C            1.9750   -12.4785    10.4224 C      73     f73     0.0463
   1871 C            2.2589   -11.0677     6.5799 C      30     f30    -0.0197
   1872 C            2.3630   -12.3956     6.5584 C      30     f30    -0.0020
   1873 H            2.5661   -11.6331    10.0762 H       0      f0     0.0384
   1874 O            4.0971   -13.8910     9.1492 O       0      f0    -0.4688
   1875 H            4.1826    -9.7654     7.5903 H       0      f0     0.0285
   1876 C            6.3813   -10.9907    10.3019 C       0      f0     0.0079
   1877 C            6.9231   -10.4012     9.1357 C       0      f0    -0.0518
   1878 C            7.5976   -12.1854     7.6018 C     148    f148     0.2046
   1879 C            8.0018   -11.2526     8.5347 C     148    f148     0.1406
   1880 H            7.5943   -13.0817    10.4939 H       0      f0     0.0386
   1881 C            8.3863   -13.7471    10.7439 C       0      f0    -0.0083
   1882 O            8.9576   -12.3153     8.0111 O     148    f148    -0.4706
   1883 C            9.6856   -13.9684    10.5226 C       0      f0     0.0322
   1884 C           11.0562   -13.9603    10.5333 C       0      f0    -0.0194
   1885 H           10.8236   -10.2682     7.8387 H       0      f0     0.0539
   1886 H           11.1796   -12.9462    10.1842 H       0      f0     0.0409
   1887 H           12.7285   -12.7487     6.6750 H       0      f0     0.0395
   1888 C           13.5344   -13.9906    10.7122 C     127    f127     0.0078
   1889 C           14.0252   -12.7059    10.1428 C       0      f0     0.0025
   1890 C           14.5054   -12.4322     8.7509 C       0      f0    -0.0037
   1891 C           14.5987   -12.4480     7.5197 C       0      f0     0.0222
   1892 C          -14.3491    -8.3842     7.5789 C     122    f122    -0.0044
   1893 H          -14.4487    -6.5227     9.7377 H       0      f0     0.0255
   1894 C          -13.3874    -7.1893     9.6612 C      74     f74    -0.0178
   1895 C          -13.3081    -7.7287     8.2319 C      74     f74    -0.0037
   1896 C          -12.1266    -7.4494    10.4489 C      74     f74     0.0006
   1897 C          -12.0911    -6.7047     7.8338 C      74     f74     0.0202
   1898 C          -10.9585    -7.5575     7.9286 C      74     f74    -0.0037
   1899 C          -10.8128    -7.9708    10.0220 C      74     f74    -0.0003
   1900 C          -10.4149    -8.5483     8.8388 C      74     f74    -0.0109
   1901 H           -9.9673    -7.3533     7.4544 H       0      f0     0.0725
   1902 C           -9.5305    -7.2644    10.4913 C      15     f15    -0.0017
   1903 C           -9.2178    -9.3684     8.2326 C       0      f0     0.0081
   1904 C           -8.6296   -10.0274     9.5453 C       0      f0    -0.0229
   1905 H           -8.6088    -8.3992     7.7731 H       0      f0     0.0162
   1906 C           -8.2458    -6.6603     9.8528 C      15     f15    -0.0184
   1907 H           -7.6423    -6.5663     8.8817 H       0      f0     0.0258
   1908 H           -7.7300    -9.7194    10.2543 H       0      f0     0.0114
   1909 H           -6.4926    -9.6108     7.7343 H       0      f0     0.0152
   1910 H           -5.8021    -8.9628    10.6215 H       0      f0     0.0120
   1911 C           -4.9685    -8.2204    10.5936 C       0      f0    -0.0199
   1912 C           -4.7793    -9.4489     6.5574 C       0      f0    -0.0002
   1913 C           -4.8113    -7.3649     9.3411 C       0      f0     0.0061
   1914 C           -4.1659    -7.9441     8.3557 C       0      f0     0.0056
   1915 H           -4.3577   -10.2729     8.4176 H       0      f0     0.0195
   1916 C           -3.2386    -8.2933     7.5554 C       0      f0    -0.0185
   1917 H           -1.6084   -10.1858     9.4247 H       0      f0     0.0209
   1918 H           -2.2910    -8.0255     8.0052 H       0      f0     0.0231
   1919 C           -1.8620    -9.6629    10.2979 C       0      f0    -0.0713
   1920 C           -0.4655    -9.3817    10.6219 C     128    f128     0.2394
   1921 H           -0.2655    -7.2617     9.7072 H       0      f0     0.0194
   1922 C           -0.2794    -9.4794     7.5292 C       0      f0    -0.0086
   1923 C           -0.0151    -8.8227     8.4132 C       0      f0    -0.0180
   1924 C            0.3216    -8.3547     9.8001 C     128    f128    -0.0432
   1925 H            1.5784    -6.8713     8.2633 H       0      f0     0.0237
   1926 C            1.6959    -8.2893    10.4219 C     128    f128    -0.0623
   1927 H            2.1633    -7.3558    10.9761 H       0      f0     0.0224
   1928 C            2.3223    -6.3209     7.7876 C       0      f0    -0.0448
   1929 H            2.3475    -8.9496     9.8306 H       0      f0     0.0158
   1930 C            3.6663    -7.0405     8.1357 C       0      f0    -0.0171
   1931 C            3.9484    -9.7645    10.6740 C       0      f0     0.0002
   1932 H            3.8299    -6.1155     8.7164 H       0      f0     0.0165
   1933 C            4.2778    -8.1523     8.2753 C       0      f0    -0.0073
   1934 H            4.4814    -6.2930    10.5792 H       0      f0     0.0174
   1935 C            4.9003    -9.3804     8.2828 C       0      f0    -0.0157
   1936 C            5.0985   -10.0966    10.2710 C       0      f0     0.0161
   1937 C            6.0915    -7.7657    10.6923 C      75     f75     0.0025
   1938 C            6.3149    -9.1526     8.7454 C       0      f0     0.0137
   1939 C            6.7295    -7.9195     9.3987 C       0      f0    -0.0107
   1940 H            6.9969    -8.4372     6.6157 H       0      f0     0.0210
   1941 H            7.9768    -8.9933    11.2409 H       0      f0     0.0183
   1942 C            7.6091    -6.9746     8.6878 C       0      f0    -0.0041
   1943 C            8.6848    -6.7065     8.0445 C       0      f0    -0.0082
   1944 H           10.2728   -10.3364    10.1564 H       0      f0     0.0316
   1945 C           10.5456    -8.1879     9.2312 C       0      f0    -0.0133
   1946 H            9.8046    -7.4603     9.5797 H       0      f0     0.0241
   1947 C           10.5772    -9.3363    10.1631 C       0      f0    -0.0160
   1948 C           10.5142    -7.1390     6.9726 C       0      f0     0.0010
   1949 C           10.7524    -8.2585     7.8435 C       0      f0     0.0026
   1950 C           11.3561    -9.4777     7.2664 C       0      f0    -0.0479
   1951 C           12.9265    -9.1895     7.5031 C     122    f122     0.0043
   1952 C           13.8910    -8.5020     8.1457 C     122    f122    -0.0085
   1953 H           13.9353    -6.3341     7.2806 H       0      f0     0.0063
   1954 C          -13.6269    -3.2339     9.3520 C       0      f0    -0.0125
   1955 H          -13.8012    -2.8796     8.2972 H       0      f0     0.0928
   1956 H          -12.7699    -4.5608     7.4470 H       0      f0     0.0874
   1957 C          -12.5622    -3.4595    10.3501 C       0      f0    -0.0001
   1958 C          -11.9708    -5.2621     7.6535 C       0      f0    -0.0271
   1959 H          -10.8313    -3.3200     8.3690 H       0      f0     0.0329
   1960 C          -10.7739    -4.3607     8.1233 C       0      f0    -0.0169
   1961 C           -9.6367    -4.8963     7.6469 C       0      f0     0.0199
   1962 C           -8.7119    -5.2169     6.8695 C       0      f0     0.0065
   1963 H           -6.7503    -3.2981    10.2173 H       0      f0     0.0346
   1964 C           -6.4856    -2.5713     7.9647 C       0      f0    -0.0541
   1965 C           -6.3189    -3.8405     8.0403 C       0      f0     0.2335
   1966 C           -6.3209    -4.1940     9.6345 C       0      f0    -0.0557
   1967 O           -6.1973    -4.8694     6.8605 O       0      f0    -0.4790
   1968 C           -5.2762    -5.1102     9.8353 C       0      f0     0.0185
   1969 C           -4.4176    -6.0324     9.9041 C       0      f0    -0.0044
   1970 H           -3.2332    -2.9664     7.2798 H       0      f0     0.0351
   1971 H           -3.3549    -2.8195    11.1330 H       0      f0     0.0201
   1972 C           -3.0793    -2.5220     8.1774 C       0      f0    -0.0260
   1973 C           -3.0861    -5.6757    10.6578 C       0      f0    -0.0026
   1974 H           -2.6975    -4.4564     7.9871 H       0      f0     0.0288
   1975 C           -1.8653    -5.6264    10.0318 C       0      f0    -0.0029
   1976 C           -1.7239    -2.0456     7.7457 C       0      f0    -0.0021
   1977 C           -1.5590    -4.5459     7.9189 C       0      f0    -0.0110
   1978 C           -1.2935    -2.7763    10.2127 C     144    f144     0.0003
   1979 C           -1.0839    -5.6193     8.8740 C       0      f0    -0.0181
   1980 C           -1.0312    -3.1228     8.6471 C     144    f144     0.0012
   1981 H            0.0293    -5.9648     9.0761 H       0      f0     0.0127
   1982 C            0.0735    -2.5649    10.2886 C     144    f144    -0.0020
   1983 C            0.4899    -3.1459     8.9106 C     144    f144    -0.0080
   1984 H            1.3374    -4.1791     7.1179 H       0      f0     0.0219
   1985 C            1.6291    -2.6620     8.4028 C       0      f0    -0.0080
   1986 H            2.4421    -5.3519     8.1771 H       0      f0     0.0201
   1987 C            2.6184    -2.3515     7.5749 C       0      f0    -0.0047
   1988 C            6.4412    -2.2655     7.1971 C       0      f0    -0.0008
   1989 C            6.9723    -3.5949     6.8454 C       0      f0    -0.0084
   1990 C            7.8041    -2.2285     9.3402 C       0      f0    -0.0052
   1991 C            8.3582    -3.4972     9.9140 C       0      f0    -0.0003
   1992 C            8.3842    -3.7922     7.2477 C       0      f0    -0.0007
   1993 C            9.3612    -4.4902     9.3966 C       0      f0     0.0001
   1994 C            9.2366    -4.6296     7.9391 C       0      f0    -0.0002
   1995 C            9.5764    -6.0524     7.4979 C       0      f0     0.0005
   1996 C           10.3458    -5.2177    10.2238 C     129    f129    -0.0015
   1997 C           11.7021    -4.8272    10.5236 C     129    f129     0.0108
   1998 C           12.4016    -3.4650    10.4949 C     130    f130    -0.0047
   1999 C           13.1815    -2.9564     9.3464 C     130    f130     0.0242
   2000 C           13.8151    -3.0025     6.7793 C      31     f31     0.2796
   2001 O           14.3824    -4.2434     7.3558 O      31     f31    -0.5076
   2002 C           14.4898    -3.2583     9.9169 C     130    f130     0.0278
   2003 C           14.5164    -5.6229     6.6396 C      31     f31     0.2009
   2004 O          -13.7958     0.6260     9.2975 O      12     f12    -0.4957
   2005 C          -13.1394    -0.5628    10.2508 C      12     f12     0.2039
   2006 C          -12.5317     1.5107     8.9968 C      12     f12     0.2308
   2007 C          -11.7802    -0.7717    10.6127 C      12     f12    -0.1069
   2008 C          -11.2532     1.1801     9.5050 C      12     f12    -0.0635
   2009 C          -10.7844     0.0165    10.1373 C      12     f12     0.0527
   2010 C           -9.3305    -0.0545    10.2929 C      12     f12     0.0843
   2011 H           -8.8034    -0.8352     9.6891 H       0      f0     0.0431
   2012 H           -7.3405    -1.0583     6.6485 H       0      f0     0.0528
   2013 C           -6.8442    -1.3679     7.5378 C       0      f0     0.0061
   2014 C           -6.6383    -0.1773     8.4122 C       0      f0     0.0023
   2015 C           -6.4575     1.0381     8.1243 C       0      f0    -0.0093
   2016 H           -6.3088    -1.4886    10.1512 H       0      f0     0.0339
   2017 C           -6.0569    -0.5733     9.8574 C       0      f0    -0.0370
   2018 H           -6.6454     0.2270    10.3393 H       0      f0     0.0252
   2019 C           -4.3653    -0.6008     9.5768 C       0      f0    -0.0001
   2020 C           -3.8137    -1.6413     8.8281 C       0      f0     0.0009
   2021 C           -3.7730     0.5180     9.9966 C       0      f0    -0.0088
   2022 C           -2.9683     1.5987    10.4246 C      94     f94    -0.0008
   2023 C           -1.3845     1.6526    10.1322 C      94     f94     0.0007
   2024 C            0.5515    -1.1457    10.7558 C      76     f76     0.0008
   2025 H            0.9514     1.1938    10.9687 H       0      f0     0.0226
   2026 C            0.7963    -0.2722     9.7666 C       0      f0    -0.0017
   2027 C            1.3971     0.3495     8.8698 C       0      f0    -0.0035
   2028 C            1.5958     1.5848     6.9117 C      32     f32    -0.0036
   2029 C            2.2678     0.9736     8.1794 C      32     f32     0.0018
   2030 H            5.3241     0.2357    10.3077 H       0      f0     0.0229
   2031 C            5.2788     1.2988    10.4255 C       0      f0    -0.0196
   2032 C            7.0788    -1.4847     8.3319 C       0      f0    -0.0042
   2033 C            7.0854     1.1476     7.4873 C       0      f0     0.0000
   2034 C            7.4341    -0.0692     8.2989 C       0      f0    -0.0059
   2035 C            8.1685     0.2842     9.5236 C       0      f0    -0.0047
   2036 C            8.7790     0.7994    10.6760 C       0      f0    -0.0034
   2037 H            9.0331    -1.7993     6.6443 H       0      f0     0.0193
   2038 C           10.2365     1.5755    10.1535 C     131    f131     0.0017
   2039 C           10.6311     0.9917     8.9510 C      78     f78    -0.0098
   2040 H           10.9144    -0.1435     7.6619 H       0      f0     0.0394
   2041 C           11.5746     0.1887     8.4194 C      78     f78     0.0342
   2042 C           12.9921    -0.1173     9.1425 C      78     f78     0.0021
   2043 C           13.3732    -1.6267     8.7915 C       0      f0    -0.0229
   2044 C           13.1767     0.6003    10.4563 C     132    f132     0.0323
   2045 C           13.4966    -1.8373     7.4436 C      31     f31     0.1664
   2046 H           13.8782     0.3468     8.5179 H       0      f0     0.1339
   2047 C           13.5903     2.0233    10.3651 C     132    f132     0.0122
   2048 C          -14.7026     3.7447     6.9245 C       9      f9     0.2222
   2049 C          -14.6700     5.1907    10.4325 C       0      f0    -0.0249
   2050 C          -14.5216     5.1212     7.2137 C       9      f9    -0.0496
   2051 H          -13.6332     3.0171     8.7929 H       0      f0     0.0478
   2052 C          -13.4568     3.4614     6.5423 C       9      f9    -0.0807
   2053 C          -13.2313     5.4426     6.8590 C       9      f9     0.0050
   2054 C          -12.6030     6.0532     9.6009 C       1      f1    -0.0172
   2055 C          -12.5254     2.8788     8.6124 C      12     f12    -0.0826
   2056 H          -12.0307     5.0843     9.4228 H       0      f0     0.0200
   2057 C          -12.2588     4.2936     6.8625 C       9      f9     0.0077
   2058 C          -11.5724     3.4367     7.7833 C      12     f12     0.0139
   2059 C          -10.3008     3.0807     7.8887 C      12     f12    -0.0256
   2060 C          -10.3963     2.3128     9.1052 C      12     f12     0.0076
   2061 C          -10.2955     4.8248    10.3409 C     133    f133    -0.0269
   2062 H           -9.4274     3.5654     7.5585 H       0      f0     0.0235
   2063 C           -9.3105     2.4739    10.0472 C      12     f12    -0.0115
   2064 C           -9.2337     3.9645    10.2346 C     133    f133     0.0054
   2065 H           -8.2910     5.7300     7.0362 H       0      f0     0.0606
   2066 C           -8.0590     4.5771    10.5853 C     133    f133    -0.0065
   2067 H           -7.0699     3.3366     7.7952 H       0      f0     0.0469
   2068 C           -6.8565     5.1166    10.0123 C      79     f79     0.0019
   2069 C           -6.4999     2.2000     7.2686 C       0      f0     0.0033
   2070 C           -5.9402     4.1709     9.6949 C       0      f0     0.0008
   2071 C           -4.9578     3.4617     9.6655 C       0      f0    -0.0036
   2072 C           -4.3651     6.1153    10.3917 C       0      f0     0.0022
   2073 C           -3.8524     2.7873     9.4534 C       0      f0    -0.0282
   2074 H           -3.4869     3.1129     8.5628 H       0      f0     0.0310
   2075 C           -3.0842     6.0380     9.9490 C       0      f0    -0.0213
   2076 C           -2.1878     5.2860    10.8529 C       0      f0    -0.0134
   2077 H           -2.2100     4.1607    10.9817 H       0      f0     0.0219
   2078 H           -1.2786     3.3199     7.3347 H       0      f0     0.0808
   2079 C           -1.0578     2.1040     9.0397 C       0      f0     0.0046
   2080 C           -0.6923     2.6141     7.8306 C       0      f0    -0.0321
   2081 C            0.3822     2.1797     6.9970 C       0      f0     0.0042
   2082 H            1.8358     4.6399     8.9085 H       0      f0     0.0254
   2083 C            2.9435     5.2639    10.6268 C      80     f80     0.0056
   2084 C            2.8248     4.6746     9.2995 C      80     f80    -0.0315
   2085 C            3.3220     2.0800     8.5642 C      32     f32    -0.0010
   2086 C            3.3643     3.3001     9.5491 C      80     f80     0.0046
   2087 C            4.1174     2.7440     7.2926 C      32     f32    -0.0030
   2088 H            4.2070     5.3387     8.5440 H       0      f0     0.0218
   2089 C            5.0648     3.7279     6.8613 C      32     f32     0.0027
   2090 C            5.3632     4.8083     8.0344 C       0      f0    -0.0299
   2091 H            5.9586     4.2526     8.7618 H       0      f0     0.0275
   2092 C            5.8260     2.1521     9.5828 C       0      f0     0.0015
   2093 C            6.4885     2.5338     8.2144 C       0      f0    -0.0068
   2094 C            6.9782     6.1181     9.0596 C       0      f0    -0.0052
   2095 C            6.8850     5.9031    10.5282 C       0      f0     0.0008
   2096 C            6.8891     6.3197     6.5896 C       0      f0    -0.0006
   2097 C            7.9552     3.3904     8.0255 C       0      f0     0.0002
   2098 C            8.5307     3.3521     6.8768 C       0      f0    -0.0048
   2099 C            8.8106     3.6407     9.1573 C       0      f0     0.0013
   2100 C            9.6559     3.1266     9.9234 C     131    f131     0.0073
   2101 C           11.1521     5.0638    10.2961 C      81     f81     0.0039
   2102 C           12.5062     2.9375    10.7691 C     132    f132    -0.0073
   2103 C           12.4838     4.2315    10.4743 C      81     f81     0.0009
   2104 C           12.6056     5.7672     8.8888 C      35     f35     0.0208
   2105 C           13.5085     4.9965     9.8145 C      35     f35     0.0071
   2106 C           13.7868     5.9872     6.8148 C       9      f9     0.0356
   2107 H           14.0281     2.7758     9.6772 H       0      f0     0.0462
   2108 C          -14.3494     7.7517    10.6574 C       1      f1     0.0126
   2109 C          -13.9568     6.3735     9.9860 C       1      f1     0.0029
   2110 C          -13.5381     8.8171    10.0641 C       1      f1     0.0056
   2111 C          -12.9046     8.4206     8.9215 C       1      f1     0.2085
   2112 O          -12.5775     9.7550     8.0502 O       1      f1    -0.5199
   2113 C          -12.1376     7.1251     8.8112 C       1      f1    -0.0483
   2114 C          -11.7204     9.2956     7.0482 C       1      f1     0.2839
   2115 C          -10.8351     7.4187     8.1207 C       1      f1     0.0233
   2116 C          -10.7717     8.1984     6.9976 C       1      f1    -0.0759
   2117 H          -10.2211     6.3289     8.1107 H       0      f0     0.0136
   2118 H           -8.3797     8.3922     8.3642 H       0      f0     0.0360
   2119 C           -7.8286     9.3783     8.3506 C       0      f0    -0.0094
   2120 C           -7.3325     9.8601     6.9338 C       8      f8     0.0002
   2121 H           -5.6791     7.9531     7.8824 H       0      f0     0.0258
   2122 C           -6.0875     7.5734     6.8966 C       0      f0    -0.0394
   2123 C           -5.8271     5.9998    10.8155 C      79     f79    -0.0015
   2124 C           -5.3639     6.4612     6.5042 C      33     f33     0.2002
   2125 C           -3.9442     6.3587     6.8872 C      33     f33    -0.0576
   2126 H           -3.0072     6.3033     8.9217 H       0      f0     0.0323
   2127 C            2.7133     9.5461    10.4938 C       0      f0     0.0106
   2128 H            2.8535     7.1729     7.1135 H       0      f0     0.0176
   2129 C            3.4178     8.8842     9.5001 C       0      f0    -0.0084
   2130 C            3.5771     7.8649     6.4785 C       0      f0    -0.0142
   2131 C            4.4185     8.7324     8.7495 C     134    f134    -0.0059
   2132 C            4.2894     8.7290     7.2087 C     134    f134     0.0073
   2133 H            4.7617     6.6165    10.4065 H       0      f0     0.0191
   2134 C            5.3434     9.7967     6.9270 C     134    f134     0.0115
   2135 C            5.7309     8.9650     9.0527 C     134    f134     0.0009
   2136 C            6.0329     9.1898    10.3464 C       0      f0    -0.0136
   2137 C            6.2884     6.0861     7.7957 C       0      f0     0.0007
   2138 C            6.5398     9.6633     8.1271 C     134    f134    -0.0409
   2139 H            7.5446     9.5342     7.8077 H       0      f0     0.0180
   2140 C            7.9240     6.9169    10.6888 C       0      f0    -0.0135
   2141 H            7.9404     7.8798    10.1332 H       0      f0     0.0188
   2142 C            9.9210     8.0645     6.9141 C       0      f0    -0.0160
   2143 C           10.1444     7.6820    10.9132 C      35     f35    -0.0045
   2144 C           10.6455     7.4535     9.4156 C      35     f35     0.0112
   2145 C           10.6333     8.3314     8.1499 C       0      f0    -0.0245
   2146 C           11.1276     6.0956     9.5099 C      35     f35    -0.0036
   2147 H           11.6683     6.4874     6.8153 H       0      f0     0.0205
   2148 H           11.6471     8.7636     8.1512 H       0      f0     0.0682
   2149 C           12.4496     6.0820     7.5296 C       0      f0    -0.0011
   2150 O           13.8108     9.8106     8.7278 O       0      f0    -0.4768
   2151 C           14.0659    10.0543     7.2063 C     125    f125     0.1995
   2152 H          -13.9872    12.9038    11.5302 H       0      f0     0.0117
   2153 C          -13.7632    10.2813    10.2334 C       0      f0    -0.0179
   2154 H          -12.6721    12.3795     7.8194 H       0      f0     0.0595
   2155 H          -12.6378    12.6119    10.5619 H       0      f0     0.0228
   2156 C          -12.4544    10.4728    10.6810 C      82     f82     0.0421
   2157 C          -12.2052    12.9050     6.8840 C       0      f0    -0.0445
   2158 H          -11.8184    12.1531     6.2857 H       0      f0     0.0362
   2159 C          -11.2536    13.8213     7.7896 C      17     f17     0.0212
   2160 C           -9.8739    13.7417     7.5979 C      17     f17     0.0005
   2161 C           -9.2554    11.2261    10.7322 C       0      f0     0.0103
   2162 C           -8.4062    11.7234     9.6707 C       0      f0    -0.0037
   2163 C           -8.1457    10.5300     8.9358 C       0      f0     0.0121
   2164 H           -7.8405    12.1069     7.1134 H       0      f0     0.0209
   2165 C           -7.3642    12.6690    10.2397 C       0      f0    -0.0020
   2166 C           -7.1561    11.2274     6.6084 C       8      f8    -0.0182
   2167 C           -6.3089    12.0777    10.0167 C       0      f0    -0.0012
   2168 C           -5.2216    11.6175     9.5899 C       0      f0    -0.0066
   2169 C           -3.9863    11.3600     9.0700 C       0      f0    -0.0157
   2170 C           -2.6185    10.8463     8.7727 C     135    f135    -0.0062
   2171 H           -2.2930    12.0054    10.6618 H       0      f0     0.0169
   2172 H           -1.6980    10.0623     6.8403 H       0      f0     0.0262
   2173 C           -1.7913    11.6059     9.7659 C     135    f135    -0.0237
   2174 C           -1.5499    10.6928     7.6892 C     135    f135    -0.0149
   2175 C           -0.2650    11.0777     8.0221 C     135    f135    -0.0165
   2176 C           -0.4498    11.3179     9.4214 C     135    f135    -0.0063
   2177 H            0.7301    11.0676     7.6236 H       0      f0     0.0484
   2178 C            0.0816    13.8575     8.0655 C       0      f0    -0.0135
   2179 H            0.8093    13.8660     7.0056 H       0      f0     0.0308
   2180 C            0.9408    13.1226    10.4350 C     136    f136    -0.0105
   2181 C            0.9140    11.8045    10.1593 C     136    f136    -0.0406
   2182 H            1.4608    11.5105     9.0825 H       0      f0     0.0330
   2183 H            3.7854    11.4465     8.0328 H       0      f0     0.0495
   2184 C            4.2686    13.4336     6.5975 C      69     f69    -0.0440
   2185 C            4.7556    13.8962     8.2146 C       0      f0     0.3107
   2186 C            4.7629    11.2874     7.7742 C     126    f126    -0.0497
   2187 H            5.3726    11.4660     8.6055 H       0      f0     0.0246
   2188 H            5.7389   -14.1345     7.9800 H       0      f0    -0.0181
   2189 H            6.8692    10.4672     8.9679 H       0      f0     0.0142
   2190 H            8.1376    11.0757     9.4767 H       0      f0     0.0171
   2191 H            8.3888    12.5528     7.1191 H       0      f0     0.0300
   2192 C            9.0739    11.4780     8.9536 C      95     f95    -0.0315
   2193 C            9.0860    12.3897     7.8261 C      95     f95    -0.0029
   2194 C           10.2160    11.5517     9.8201 C      95     f95     0.0114
   2195 C           10.3396    12.7150     7.1226 C      95     f95    -0.0447
   2196 C           11.5317    11.9228     9.2008 C      95     f95    -0.0505
   2197 C           11.4884    12.2075     7.8202 C      95     f95     0.2896
   2198 C           12.4044    13.5369    10.4936 C     127    f127    -0.0059
   2199 C           12.6381    12.2498     9.8084 C     127    f127     0.0949
   2200 O           12.7241    12.4417     7.2374 O       0      f0    -0.4966
   2201 C           13.8535    11.7503    10.3288 C     127    f127    -0.0507
   2202 C           13.8637    11.1744     6.7813 C     125    f125     0.1329
   2203 C           14.6084    10.7853     9.5681 C       0      f0     0.2663
   2204 H          -14.2883   -12.5331    13.6355 H       0      f0     0.0255
   2205 C          -14.5362   -11.5655    13.6754 C     137    f137    -0.0466
   2206 H          -13.7190   -10.7067    13.4482 H       0      f0     0.0252
   2207 C          -11.8389   -14.0405    11.2532 C      72     f72    -0.0131
   2208 C          -11.3010   -12.2539    13.3438 C      72     f72    -0.0011
   2209 C          -11.3578   -11.8109    12.1046 C      72     f72    -0.0036
   2210 C          -11.3416   -12.7827    14.5723 C      72     f72    -0.0033
   2211 C          -11.0311   -10.3581    12.3042 C       0      f0    -0.0052
   2212 C           -5.2126   -13.2034    13.5891 C     138    f138    -0.0064
   2213 C           -4.5635   -12.2074    11.0692 C       0      f0    -0.0250
   2214 C           -4.5318   -13.2241    12.2451 C     138    f138     0.0032
   2215 H           -4.2360   -10.1767    13.3410 H       0      f0     0.0145
   2216 C           -3.6550   -11.1810    10.9718 C       0      f0    -0.0115
   2217 C           -3.4898   -14.0113    12.1185 C     138    f138    -0.0221
   2218 H           -2.9215    14.0777    11.3590 H       0      f0     0.0174
   2219 H           -0.2999   -12.6959    13.4401 H       0      f0     0.0287
   2220 C            0.4012   -13.3777    13.7792 C      36     f36    -0.0022
   2221 C            1.0735   -13.7408    12.4263 C      73     f73     0.0261
   2222 C            1.4260   -12.5063    11.7419 C      73     f73     0.0172
   2223 C            1.4550   -12.2197    14.1559 C      36     f36     0.0063
   2224 C            1.9460   -11.7389    12.8275 C      36     f36     0.0640
   2225 C            2.3995   -12.4447    15.1108 C      36     f36     0.0358
   2226 C            2.8980   -10.9433    12.9209 C      36     f36     0.0261
   2227 C            3.1786   -11.1537    15.1361 C      36     f36    -0.0084
   2228 O            3.4333    14.1454    13.2952 O      38     f38    -0.4465
   2229 C            3.8719   -10.7755    13.8732 C      36     f36     0.0159
   2230 C            5.2674   -10.2469    13.8513 C       0      f0    -0.0021
   2231 H            5.8651   -11.6800    12.6282 H       0      f0     0.0411
   2232 C            6.2851   -11.3038    13.5067 C       0      f0    -0.0143
   2233 H            7.0612   -11.5180    11.1257 H       0      f0     0.0158
   2234 C            7.6673   -11.1172    13.7889 C       0      f0    -0.0168
   2235 H            7.8802   -10.2564    14.5816 H       0      f0     0.0182
   2236 C            8.8263   -11.7785    13.1812 C       0      f0    -0.0055
   2237 C           10.2477   -11.9590    13.3898 C       0      f0    -0.0061
   2238 C           11.5669   -12.0711    13.6045 C       0      f0     0.0185
   2239 C           11.9504   -13.1445    14.6784 C       0      f0    -0.0011
   2240 C           12.7028   -11.0355    13.6168 C     137    f137    -0.0498
   2241 C           13.2172   -10.7349    14.7762 C     137    f137     0.2405
   2242 C           13.8087   -11.5300    12.7585 C     137    f137     0.0043
   2243 C           14.3957   -12.1511    11.4293 C       0      f0    -0.0141
   2244 C           14.6517   -11.2878    15.1703 C     137    f137    -0.0298
   2245 C          -14.2900    -8.7560    14.4333 C       0      f0    -0.0178
   2246 C          -13.9955   -10.0331    15.0226 C      96     f96     0.0045
   2247 H          -13.8116    -8.2457    13.6078 H       0      f0     0.0190
   2248 H          -13.7615    -5.7328    11.8971 H       0      f0     0.0187
   2249 H          -12.4797    -8.1564    15.1382 H       0      f0     0.0167
   2250 C          -12.1581    -7.0259    11.8113 C      15     f15    -0.0014
   2251 C          -10.7758    -6.8074    12.6379 C      15     f15     0.0037
   2252 C          -10.6599    -9.2525    12.5389 C       0      f0    -0.0049
   2253 C          -10.2121    -8.0650    13.0519 C       0      f0    -0.0248
   2254 C           -9.6476    -6.5470    11.6624 C      15     f15    -0.0008
   2255 H           -9.7012    -8.2170    14.0377 H       0      f0     0.0240
   2256 C           -7.6675    -6.2096    11.0968 C      15     f15    -0.0126
   2257 H           -7.0813    -8.2755    14.2099 H       0      f0     0.0428
   2258 H           -6.5367    -5.9188    11.3078 H       0      f0     0.0235
   2259 C           -6.1609    -8.9380    14.3465 C       0      f0    -0.0525
   2260 H           -5.8080    -9.4828    13.2468 H       0      f0     0.0073
   2261 C           -4.8431    -7.0681    12.9531 C       0      f0    -0.0082
   2262 C           -4.8768    -7.6308    11.7232 C       0      f0    -0.0088
   2263 C           -4.7947    -7.9683    14.3703 C      97     f97     0.2187
   2264 C           -3.3958    -8.4893    14.2752 C      97     f97    -0.0238
   2265 C           -3.2759    -9.7092    13.6181 C       0      f0    -0.0136
   2266 C           -2.8035   -10.1585    11.2495 C       0      f0     0.0298
   2267 C           -2.5309    -9.2929    12.4756 C       0      f0     0.0006
   2268 H           -1.6960    -8.5564    12.7034 H       0      f0     0.0448
   2269 C           -1.6067    -6.0767    12.5311 C       0      f0    -0.0013
   2270 H           -0.1898    -7.5526    13.2310 H       0      f0     0.0385
   2271 C           -0.5842    -9.3945   -15.2762 C       5      f5    -0.0106
   2272 C           -0.4277    -6.3914    13.1471 C       0      f0    -0.0259
   2273 H           -0.5769    -8.9142    14.2387 H       0      f0     0.0429
   2274 O            0.2810    -9.7528    11.8446 O     128    f128    -0.5392
   2275 H            1.4950   -10.3030   -14.9018 H       0      f0     0.0222
   2276 C            1.6589    -9.4054    11.4382 C     128    f128     0.2502
   2277 H            3.0166    -5.9777    12.1355 H       0      f0     0.0193
   2278 C            2.8726    -9.9242    11.7739 C       0      f0    -0.0629
   2279 C            4.2195    -6.6019    14.8325 C       0      f0     0.0069
   2280 C            4.7584    -6.9026    12.5813 C      75     f75    -0.0030
   2281 C            4.8592    -7.6168    13.9202 C      75     f75    -0.0087
   2282 C            5.0291    -7.0570    11.1899 C      75     f75    -0.0222
   2283 C            5.6495    -8.9072    13.8646 C      75     f75    -0.0069
   2284 C            7.0110    -8.7085    11.5844 C      75     f75    -0.0232
   2285 C            7.0303    -8.8961    12.9542 C      75     f75    -0.0152
   2286 H            7.3411    -6.9806    14.1183 H       0      f0     0.0218
   2287 C            8.3442    -6.9266    14.0134 C       0      f0    -0.0392
   2288 H            8.5228    -7.5876    13.2014 H       0      f0     0.0209
   2289 H           10.4844   -10.0269    12.3541 H       0      f0     0.0206
   2290 C           10.5073    -8.9874    11.7153 C       0      f0    -0.0201
   2291 H           10.8941    -9.0888    14.5829 H       0      f0     0.0684
   2292 C           11.0391    -6.5490    11.8978 C     129    f129    -0.0005
   2293 C           10.9724    -7.9845    12.4514 C       0      f0     0.0019
   2294 C           11.2210    -8.2211    13.9193 C       0      f0    -0.0104
   2295 C           11.9665    -7.1192    14.3841 C       0      f0    -0.0088
   2296 C           12.1959    -6.1308    11.0356 C     129    f129    -0.0218
   2297 H           12.0228    -6.3691    13.5264 H       0      f0     0.0187
   2298 H           12.9482    -6.6217    10.5435 H       0      f0     0.0241
   2299 H           14.6742    -6.2571    12.9959 H       0      f0     0.0185
   2300 C           14.3515    -6.1019    14.1814 C       0      f0    -0.0320
   2301 C           14.4980    -7.3841    14.8964 C       0      f0    -0.0000
   2302 C          -13.9653    -4.6325    15.1712 C       0      f0    -0.0058
   2303 C          -13.6350    -5.4001    14.3640 C       0      f0    -0.0054
   2304 C          -12.8934    -6.1476    12.4371 C      15     f15    -0.0220
   2305 C          -12.2848    -5.6181    13.6596 C      15     f15    -0.0043
   2306 H          -11.9963    -3.3688    12.2779 H       0      f0     0.0266
   2307 C          -11.4956    -3.0787    11.3173 C       0      f0    -0.0467
   2308 C          -10.8998    -5.6944    13.6706 C      15     f15    -0.0042
   2309 C          -10.7419    -2.2038    14.8212 C      99     f99     0.0088
   2310 C          -10.3113    -3.5651    14.9593 C      99     f99    -0.0005
   2311 C           -9.9012    -4.6885    14.1330 C      15     f15     0.0084
   2312 C           -8.7583    -5.0009    13.4154 C      15     f15    -0.0135
   2313 C           -8.6271    -5.6600    12.0761 C      15     f15     0.0125
   2314 H           -8.0390    -4.3753    13.7020 H       0      f0     0.0361
   2315 H           -4.6421    -4.9149    13.3915 H       0      f0     0.0344
   2316 C           -4.1721    -5.8489    12.9421 C       0      f0     0.0080
   2317 H           -3.1696    -3.5054    14.8439 H       0      f0     0.0232
   2318 C           -3.2576    -2.5765    14.8903 C       0      f0    -0.0229
   2319 C           -2.9883    -5.5928    12.0826 C       0      f0    -0.0098
   2320 C           -2.5314    -2.1364    13.7467 C       0      f0    -0.0039
   2321 C           -2.3116    -2.3240    11.1681 C      76     f76    -0.0168
   2322 C           -1.7614    -2.1293    12.6032 C      76     f76    -0.0072
   2323 H            0.3413    -2.0410    14.5223 H       0      f0     0.0225
   2324 H           -0.2136    -4.7025    13.4874 H       0      f0     0.0182
   2325 H            0.7234    -5.0530    11.0303 H       0      f0     0.0219
   2326 C            0.7497    -5.2283    13.4663 C       0      f0    -0.0133
   2327 H            1.0905    -3.6954    12.6116 H       0      f0     0.0194
   2328 C            0.9986    -4.6324    12.0568 C       0      f0    -0.0310
   2329 C            1.8730    -5.2439    14.3420 C       0      f0    -0.0062
   2330 C            2.4777    -4.9910    12.2522 C       0      f0    -0.0163
   2331 C            2.9433    -5.9030    14.5991 C       0      f0     0.0007
   2332 H            3.9897    -2.1265    13.4807 H       0      f0     0.0192
   2333 C            3.3318    -4.2159    12.6486 C       0      f0     0.0011
   2334 C            4.2063    -3.2094    13.1556 C       0      f0    -0.0207
   2335 C            5.1984    -3.3891    14.2796 C     139    f139     0.0034
   2336 C            5.9183    -4.6513    14.2509 C     139    f139    -0.0002
   2337 C            6.0130    -2.3692    14.6177 C     139    f139    -0.0051
   2338 C            7.3344    -4.4395    13.9643 C     139    f139    -0.0027
   2339 C            7.4287    -3.0386    14.6289 C     139    f139    -0.0041
   2340 C            8.4297    -5.4614    13.5528 C       0      f0     0.0008
   2341 C            9.5638    -5.0177    12.6939 C       0      f0     0.0011
   2342 C            9.8414    -5.7476    11.5265 C     129    f129    -0.0053
   2343 H            9.6741    -3.8668    14.6489 H       0      f0     0.0201
   2344 C           10.3507    -4.2276    13.7352 C       0      f0    -0.0239
   2345 C           11.4040    -3.7717    13.2477 C       0      f0     0.0016
   2346 C           12.6875    -3.3174    12.9925 C       0      f0    -0.0254
   2347 C           13.1799    -3.0885    11.6164 C     130    f130     0.0019
   2348 H           13.5144    -2.9876    13.7194 H       0      f0     0.0185
   2349 H           13.3576    -5.5734    14.3437 H       0      f0     0.0180
   2350 C           14.5987    -3.0995    11.3188 C     130    f130    -0.0146
   2351 H          -14.6046    -1.9352    14.3044 H       0      f0     0.0180
   2352 H          -14.2818    -0.3586    13.2855 H       0      f0     0.0249
   2353 C          -14.1070    -2.1305    11.9773 C       0      f0    -0.0014
   2354 C          -14.1264    -1.0351    11.0737 C       0      f0    -0.0226
   2355 C          -14.0400    -1.3588    13.4214 C       0      f0    -0.0390
   2356 C          -12.4859    -0.7739    13.7004 C      83     f83    -0.0056
   2357 C          -12.0935    -1.5346    14.9988 C      83     f83    -0.0187
   2358 C          -11.4452    -0.0635    13.1295 C      83     f83     0.0138
   2359 C          -11.0160    -1.6929    11.4030 C      12     f12     0.2261
   2360 C          -10.0855     0.6764    13.3128 C      83     f83     0.0347
   2361 O           -9.5224    -1.3704    11.6216 O      12     f12    -0.4418
   2362 C           -9.5169    -1.2568    14.8033 C      99     f99     0.0316
   2363 C           -9.4431     0.3168    14.6747 C      83     f83     0.0008
   2364 C           -9.4190     1.6115    12.4128 C       0      f0     0.0116
   2365 C           -9.1787     1.2909    10.8288 C      12     f12    -0.0077
   2366 H           -7.1456     1.0627    12.7089 H       0      f0     0.0319
   2367 C           -6.5485     2.0446    12.8970 C      47     f47    -0.0320
   2368 C           -5.5700     1.2628    13.9277 C      47     f47    -0.0165
   2369 C           -5.7181     1.4766   -15.1844 C      47     f47     0.0015
   2370 H           -5.1612     0.4062    13.4499 H       0      f0     0.0226
   2371 H           -3.7996     1.8919    12.5371 H       0      f0     0.0153
   2372 C           -3.3849     0.6448    15.1385 C      45     f45    -0.0017
   2373 C           -3.0686     0.0091    13.8899 C       0      f0    -0.0050
   2374 C           -2.7630     1.6613    12.0541 C      94     f94    -0.0174
   2375 C           -2.2337     0.3035    12.6850 C      84     f84     0.0022
   2376 C           -1.3310    -0.7755    12.3675 C      84     f84     0.0001
   2377 C           -0.0873    -0.1961    11.6474 C      84     f84    -0.0055
   2378 C           -0.2593     1.2624    11.1125 C      94     f94    -0.0077
   2379 H            0.6586    -0.6237    13.4716 H       0      f0     0.0290
   2380 C            1.1386    -1.5028    13.9101 C       0      f0    -0.0559
   2381 H            1.6483    -2.3409    13.4153 H       0      f0     0.0208
   2382 H            2.6397     0.4979    14.8806 H       0      f0     0.0222
   2383 H            5.6832    -1.0242    13.5252 H       0      f0     0.0208
   2384 C            5.4388    -0.8905    14.7033 C       0      f0    -0.0343
   2385 H            6.4151    -0.6096   -15.1031 H       0      f0     0.0181
   2386 C            7.1146     1.6943    13.8781 C       0      f0     0.0011
   2387 C            7.4148     1.5892    12.4111 C       0      f0    -0.0175
   2388 H            8.1700    -0.3150    12.5581 H       0      f0     0.0192
   2389 C            8.2538     0.6128    12.0139 C       0      f0    -0.0174
   2390 H            9.5683    -0.7051    14.5932 H       0      f0     0.0221
   2391 C           11.0641     0.8783    14.8533 C       0      f0    -0.0056
   2392 H           11.2444     0.0967    11.5541 H       0      f0     0.0226
   2393 C           11.8695    -0.3056    15.0142 C       0      f0    -0.0006
   2394 C           12.1676     0.7859    11.5942 C     132    f132    -0.0431
   2395 H           12.4313     1.1073    12.6486 H       0      f0     0.0210
   2396 C           13.1924    -0.4129    14.9465 C       0      f0    -0.0079
   2397 H           13.8720     1.5527    13.9915 H       0      f0     0.0163
   2398 C           14.5326     1.5533    14.8906 C       0      f0    -0.0144
   2399 C          -14.4285     4.8935    14.8289 C       0      f0    -0.0218
   2400 H          -14.2728     4.4294    10.9918 H       0      f0     0.0167
   2401 H          -13.5945     4.9961    14.1680 H       0      f0     0.0173
   2402 C          -11.8249     3.5859    15.0650 C     140    f140    -0.0001
   2403 H          -11.7799     5.0754    12.3813 H       0      f0     0.0166
   2404 H          -11.4477     2.3989    13.8120 H       0      f0     0.0239
   2405 C          -11.1661     3.3148    13.9228 C     140    f140    -0.0271
   2406 C          -11.2867     5.9364    11.9910 C       0      f0    -0.0181
   2407 C          -11.1738     5.0330    15.1091 C     140    f140    -0.0027
   2408 C          -10.0721     5.9439    10.9275 C     133    f133     0.0475
   2409 C           -9.8488     3.7197    13.9452 C     140    f140     0.0053
   2410 C           -9.7210     4.8748    14.5141 C     140    f140    -0.0023
   2411 C           -8.9128     2.8650    13.0074 C      85     f85    -0.0093
   2412 C           -8.6393     5.8006    14.5055 C      85     f85     0.0100
   2413 C           -8.6844     5.8699    11.0628 C     133    f133    -0.0642
   2414 C           -7.6110     3.0240    13.6153 C      85     f85     0.0090
   2415 C           -7.3711     5.3135    14.0489 C      85     f85     0.0183
   2416 C           -6.9988     5.7679    12.9538 C      79     f79    -0.0655
   2417 C           -7.0219     4.0241    14.3348 C      85     f85    -0.0070
   2418 H           -6.1719     2.0953    11.8480 H       0      f0     0.0154
   2419 C           -5.7809     5.7267    12.2375 C      79     f79    -0.0120
   2420 H           -4.9423     5.6825    12.8995 H       0      f0     0.0193
   2421 H           -3.8751     3.2560    13.4194 H       0      f0     0.0184
   2422 C           -3.3193     4.0523    13.9447 C       0      f0    -0.0292
   2423 H           -3.6959     4.9938    13.3761 H       0      f0     0.0170
   2424 C           -1.9140     3.7376    13.4313 C       0      f0    -0.0180
   2425 C           -1.7316     2.6662    12.3399 C      94     f94    -0.0013
   2426 C           -1.5470     6.0061    11.9393 C       0      f0    -0.0215
   2427 H           -1.4328     3.2343    14.2705 H       0      f0     0.0250
   2428 C           -1.1262     5.0815    13.0517 C       0      f0     0.0000
   2429 C           -0.3581     2.3220    12.3554 C      94     f94    -0.0013
   2430 C           -0.1798     5.5304    13.9575 C       0      f0    -0.0040
   2431 H            0.3796     5.3548    10.8404 H       0      f0     0.0160
   2432 C            0.6484     3.1791    12.8266 C     141    f141    -0.0029
   2433 C            1.0321     5.1323    14.5958 C       0      f0     0.0004
   2434 C            1.2633     2.5981   -15.2665 C       0      f0    -0.0071
   2435 C            1.5173     3.5539    11.7263 C     141    f141    -0.0011
   2436 C            1.5687     2.5548    13.9050 C     141    f141    -0.0000
   2437 C            1.6169     5.0994    11.4392 C      80     f80    -0.0148
   2438 C            2.1493     5.7882    13.9922 C      34     f34    -0.0022
   2439 C            2.1924     5.9321    12.6924 C      34     f34     0.0022
   2440 C            2.6363     2.8266    11.9112 C     141    f141     0.0012
   2441 C            2.7587     2.4926    13.2435 C     141    f141    -0.0182
   2442 C            3.4110     5.6066    14.7769 C      34     f34     0.0034
   2443 C            3.6931     2.9101    10.9342 C      80     f80    -0.0009
   2444 H            3.8534     2.2665    13.7715 H       0      f0     0.0195
   2445 C            4.9283     2.3696    11.4907 C       0      f0     0.0018
   2446 H            4.8626     4.1985   -14.6431 H       0      f0     0.0259
   2447 C            5.5797     3.6742    11.6571 C       0      f0    -0.0036
   2448 C            6.2807     4.7049    11.4000 C       0      f0    -0.0012
   2449 C            6.9771     2.2953    14.9752 C       0      f0    -0.0135
   2450 H            7.1719     2.4964    11.9264 H       0      f0     0.0240
   2451 C            9.6327     3.6603    11.3760 C     131    f131    -0.0061
   2452 C           10.0643     5.1708    11.1334 C      81     f81    -0.0030
   2453 C           10.5942     3.0676    12.1709 C     131    f131    -0.0041
   2454 C           10.3982     3.2876    13.5650 C     102    f102    -0.0058
   2455 C           10.7366     2.2055    14.7001 C     102    f102    -0.0001
   2456 C           11.2919     1.9943    11.1337 C     132    f132     0.0050
   2457 C           11.3207     4.4016    14.1353 C     102    f102     0.0016
   2458 H           13.2547     3.6734    13.0784 H       0      f0     0.0185
   2459 C           12.6931     4.4354    13.6265 C       0      f0    -0.0210
   2460 C           13.7903     5.2504    13.9802 C       0      f0    -0.0079
   2461 C          -13.6295     9.9309    14.7331 C       0      f0    -0.0048
   2462 H          -12.9176     6.5000    12.8322 H       0      f0     0.0141
   2463 C          -11.9733     7.1294    12.2868 C       0      f0    -0.0154
   2464 C          -11.2701     8.3096    11.7160 C       0      f0     0.0332
   2465 C          -11.2771     9.6039    11.2826 C      82     f82    -0.0078
   2466 H           -9.6131     9.4363    13.5484 H       0      f0     0.0506
   2467 C           -8.7289     7.1619    14.9854 C       0      f0    -0.0016
   2468 H           -8.6290     8.1562    14.4488 H       0      f0     0.0630
   2469 O           -8.1724     7.7199    12.2806 O       0      f0    -0.5271
   2470 C           -7.8916     6.5605    12.0352 C      79     f79     0.3694
   2471 H           -5.6866     8.6817    13.9311 H       0      f0     0.0381
   2472 H           -6.3678     6.7095   -14.8925 H       0      f0     0.0261
   2473 C           -5.2385     8.4556    15.0368 C       0      f0    -0.0157
   2474 C           -3.8960     8.9724    15.0296 C       0      f0     0.0046
   2475 H           -2.9429     8.9240    13.0235 H       0      f0    -0.0121
   2476 C           -2.2916     9.9543    13.0731 C       0      f0     0.2824
   2477 C           -2.2356     6.4278    15.1649 C       0      f0    -0.0097
   2478 O           -1.2615     9.9848    13.8033 O       0      f0    -0.4517
   2479 C           -1.2693     6.8116    14.4484 C       0      f0     0.0339
   2480 H           -0.8934     6.9631    11.9276 H       0      f0     0.0262
   2481 H            1.8423     8.0781    14.4728 H       0      f0     0.0415
   2482 C            1.7878     9.9134    11.3716 C       0      f0    -0.0444
   2483 C            2.1389     9.4078    12.6194 C       0      f0     0.0676
   2484 C            2.3841     8.4208    13.5470 C       0      f0    -0.0170
   2485 C            3.2986     6.5899    12.2439 C      34     f34     0.0034
   2486 C            3.8286     6.3323    11.0956 C      34     f34    -0.0254
   2487 C            3.6929     7.7460    13.3144 C      34     f34    -0.0175
   2488 C            4.1983     6.7154    14.3643 C      34     f34     0.0005
   2489 H            4.6219     8.3570    13.0069 H       0      f0     0.0228
   2490 C            5.5238     9.7659    14.4580 C      37     f37    -0.0073
   2491 C            6.4968     9.6739    11.2785 C       0      f0    -0.0073
   2492 C            6.7269     9.8818    13.6253 C      37     f37    -0.0023
   2493 C            7.4136     8.0238    14.9173 C      37     f37     0.0020
   2494 C            7.8536     9.0992    13.9285 C      37     f37    -0.0068
   2495 C            8.1631     6.8785    14.8317 C       0      f0    -0.0171
   2496 C            8.7480     9.8326    12.8975 C      37     f37    -0.0034
   2497 H            9.2014     7.1567    14.5985 H       0      f0     0.0235
   2498 H            9.4461     6.9902    12.4389 H       0      f0     0.0207
   2499 C            9.2474     6.4199    11.3878 C      35     f35    -0.0096
   2500 C           10.0887     9.6017    12.8590 C       0      f0    -0.0024
   2501 C           10.2113     8.7497    11.6845 C       0      f0     0.0010
   2502 C           11.1747     9.7159    14.0066 C       0      f0    -0.0036
   2503 C           12.1099     8.6205    13.7200 C       0      f0    -0.0029
   2504 C           12.7035     7.6664    13.3644 C       0      f0    -0.0027
   2505 H           13.2701     5.9743    12.3808 H       0      f0     0.0230
   2506 C           13.6423     7.0015    12.4723 C       0      f0    -0.0214
   2507 H           13.8529     9.0435    11.7758 H       0      f0     0.0322
   2508 C           14.1786     7.9921    11.6646 C       0      f0    -0.0060
   2509 C          -14.5406    10.6625    14.1940 C       0      f0    -0.0248
   2510 C          -14.2085    12.2226    14.3603 C       0      f0    -0.0306
   2511 H          -13.4133    12.2177    13.4920 H       0      f0     0.0176
   2512 C          -12.1744    11.8408    11.2024 C      82     f82    -0.0306
   2513 C          -11.6021    13.6863    12.6912 C      89     f89    -0.0056
   2514 C          -11.5606    12.2521    12.3452 C      89     f89     0.0034
   2515 C          -11.4119    13.9965    14.0931 C      89     f89     0.0028
   2516 C          -11.0255    11.1946    13.3292 C      89     f89    -0.0095
   2517 C          -10.8383    11.8561    14.5535 C      89     f89     0.0145
   2518 C           -9.9767    10.3925    11.5434 C      82     f82     0.0335
   2519 C           -9.8084    10.4000    12.9971 C      82     f82     0.0025
   2520 C           -7.3033    13.0630    11.7342 C       0      f0    -0.0082
   2521 H           -7.0329    10.3868    13.5422 H       0      f0     0.0433
   2522 C           -6.7747    12.0807    12.5383 C       0      f0     0.0265
   2523 H           -7.2754   -14.1107    12.1941 H       0      f0     0.0287
   2524 C           -6.2062    11.1775    13.5401 C       0      f0     0.0286
   2525 C           -4.9070    10.7459    13.7589 C       0      f0    -0.0018
   2526 C           -4.4445    14.0026    14.3028 C     138    f138     0.0297
   2527 C           -3.9504    10.0879    14.0819 C       0      f0    -0.0122
   2528 C           -3.3079    13.7193    13.3509 C     138    f138    -0.0251
   2529 H           -2.4297    13.1770    13.4007 H       0      f0     0.0389
   2530 H           -1.9538    10.4067    12.0072 H       0      f0    -0.0035
   2531 H           -0.1412    10.3047    11.6486 H       0      f0     0.0300
   2532 C           -0.2711    13.7337    14.7115 C       0      f0     0.0236
   2533 C            0.7703    11.0615    11.4962 C     136    f136     0.2319
   2534 C            0.8454    13.3518    11.8126 C     136    f136     0.1978
   2535 O            0.8856    11.9682    12.6414 O     136    f136    -0.4445
   2536 C            2.8981    13.5109    14.6540 C      38     f38     0.2103
   2537 C            3.2517    12.2073    14.7325 C      38     f38    -0.0100
   2538 C            4.0587    11.6252    13.8987 C      38     f38    -0.0267
   2539 C            4.1636    12.7762    12.9776 C      38     f38     0.2247
   2540 C            4.5605    10.6431    15.0167 C      38     f38     0.0092
   2541 C            5.2286    12.9591    12.3797 C       0      f0    -0.0165
   2542 C            6.3559    13.2018    11.7293 C       0      f0     0.0330
   2543 C            6.8652    10.4402    12.2991 C      37     f37    -0.0051
   2544 C            7.6422    13.2595    11.1826 C       0      f0    -0.0076
   2545 C            8.1271    10.7930    11.9553 C      37     f37    -0.0052
   2546 C            8.4813    12.0514    11.4695 C       0      f0    -0.0063
   2547 H            9.5826    12.8575    14.7610 H       0      f0     0.0194
   2548 C            9.9841    12.0520    11.1947 C       0      f0    -0.0010
   2549 C           10.5971    12.7169    14.9447 C       6      f6    -0.0232
   2550 C           11.0507    12.5123    13.5196 C       0      f0    -0.0065
   2551 C           11.1073    12.2164    12.2658 C       0      f0    -0.0184
   2552 H           11.8211    11.4273    12.2186 H       0      f0     0.0269
   2553 H           13.2023    13.5262    14.5038 H       0      f0     0.0216
   2554 C           14.0050    13.0235    12.6254 C       0      f0    -0.0085
   2555 H           13.8588    10.4405    14.0217 H       0      f0     0.0202
   2556 C           14.0174    12.9586    13.9305 C       0      f0    -0.0210
   2557 C           14.4023    12.7800    11.2102 C     127    f127    -0.0115
   2558 B           14.7360   -14.1594    15.2764 B     149     BOX     0.0000
   2559 B          -14.7360   -14.1594    15.2764 B     149     BOX     0.0000
   2560 B          -14.7360    14.1594    15.2764 B     149     BOX     0.0000
   2561 B           14.7360    14.1594    15.2764 B     149     BOX     0.0000
   2562 B           14.7360   -14.1594   -15.2764 B     149     BOX     0.0000
   2563 B          -14.7360   -14.1594   -15.2764 B     149     BOX     0.0000
   2564 B          -14.7360    14.1594   -15.2764 B     149     BOX     0.0000
   2565 B           14.7360    14.1594   -15.2764 B     149     BOX     0.0000
@<TRIPOS>BOND
     1      1      2      1
     2      2      5      1
     3      3     45      1
     4      3    367      1
     5      4      5      1
     6      4     46      1
     7      5      6      1
     8      5      7      1
     9     21    329      1
    10     22     54      1
    11     24     25      1
    12     24     62      1
    13     24     64      1
    14     32    409      1
    15     33     76      1
    16     33     80      1
    17     33    418      1
    18     36     80      1
    19     39     40      1
    20     39    357      1
    21     40     41      1
    22     40     42      1
    23     41    422      1
    24     43     44      1
    25     44    472      1
    26     45     49      1
    27     45    373      1
    28     47     49      1
    29     49     50      1
    30     50    102      1
    31     50    433      1
    32     52     53      1
    33     53     56      1
    34     53     57      1
    35     54     55      1
    36     54     59      1
    37     55    446      1
    38     55    450      1
    39     56     58      1
    40     58     59      1
    41     58   2271      1
    42     59     62      1
    43     61     62      1
    44     61    396      1
    45     61    450      1
    46     64   2271      1
    47     64   2275      1
    48     70     72      1
    49     70     73      1
    50     71     73      1
    51     72     74      1
    52     72    460      1
    53     73     75      1
    54     73    126      1
    55     74     75      1
    56     74     76      1
    57     75     78      1
    58     76    461      1
    59     78     79      1
    60     78     83      1
    61     80     83      1
    62     82     83      1
    63     83     84      1
    64     85     86      1
    65     86     88      1
    66     86    525      1
    67     88     89      1
    68     88    137      1
    69     94     96      1
    70     96     99      1
    71     99    100      1
    72    100    102      1
    73    100    479      1
    74    102    484      1
    75    103    147      1
    76    104    105      1
    77    105    107      1
    78    105    153      1
    79    113    114      1
    80    113    159      1
    81    113    161      1
    82    124   2336      1
    83    125    174      1
    84    125    512      1
    85    125    572      1
    86    131   2339      1
    87    137    139      1
    88    138    140      1
    89    139    140      1
    90    139    142      1
    91    142    526      1
    92    144    145      1
    93    144    476      1
    94    145    146      1
    95    145    147      1
    96    146    148      1
    97    147    149      1
    98    148    149      1
    99    148    151      1
   100    149    150      1
   101    149    152      1
   102    151    204      1
   103    156    212      1
   104    158    218      1
   105    158   2369      1
   106    159    160      1
   107    160    162      1
   108    161    162      1
   109    161    552      1
   110    162    163      1
   111    163    219      1
   112    163    221      1
   113    164    563      1
   114    169    565      1
   115    172    567      1
   116    178    572      1
   117    191    195      1
   118    191    636      1
   119    192    253      1
   120    195    196      1
   121    195    200      1
   122    195    256      1
   123    199    253      1
   124    200    201      1
   125    200    589      1
   126    200    591      1
   127    205    210      1
   128    207    209      1
   129    207    212      1
   130    207    594      1
   131    208    209      1
   132    208    211      1
   133    209    213      1
   134    210    211      1
   135    210   2369      1
   136    212    214      1
   137    213    215      1
   138    213    601      1
   139    214    219      1
   140    214    601      1
   141    217    218      1
   142    218    221      1
   143    219    550      1
   144    219    609      1
   145    221    223      1
   146    222    223      1
   147    222    609      1
   148    222    610      1
   149    223    225      1
   150    224    275      1
   151    229    615      1
   152    232    234      1
   153    234    235      1
   154    234    236      1
   155    235    282      1
   156    235    288      1
   157    236    237      1
   158    236    239      1
   159    239    240      1
   160    239    241      1
   161    240    242      1
   162    240    292      1
   163    243    245      1
   164    244    246      1
   165    245    246      1
   166    247    630      1
   167    248    301      1
   168    249    250      1
   169    253    255      1
   170    255    256      1
   171    255    257      1
   172    256    258      1
   173    273    274      1
   174    273    275      1
   175    273    654      1
   176    275    277      1
   177    275    610      1
   178    277    278      1
   179    277    661      1
   180    284    345      1
   181    284    347      1
   182    285    289      1
   183    287    288      1
   184    287    290      1
   185    288    292      1
   186    289    291      1
   187    290    347      1
   188    290    672      1
   189    292    293      1
   190    297    299      1
   191    298    300      1
   192    298    356      1
   193    299    300      1
   194    299    301      1
   195    300    302      1
   196    301    303      1
   197    302    305      1
   198    302    362      1
   199    303    304      1
   200    303    305      1
   201    313   2515      1
   202    313   2517      1
   203    328    330      1
   204    329    330      1
   205    329    705      1
   206    329    706      1
   207    330    331      1
   208    331    332      1
   209    331    333      1
   210    332    336      1
   211    332    708      1
   212    340    343      1
   213    343    345      1
   214    346    348      1
   215    346    349      1
   216    346    722      1
   217    347    348      1
   218    348    351      1
   219    349    352      1
   220    350    351      1
   221    351    352      1
   222    356    359      1
   223    358    361      1
   224    359    360      1
   225    359    362      1
   226    360    361      1
   227    362    363      1
   228    365    368      1
   229    366    368      1
   230    368    370      1
   231    369    432      1
   232    370    371      1
   233    372    373      1
   234    373    374      1
   235    373    434      1
   236    377    378      1
   237    378    381      1
   238    378    743      1
   239    381    384      1
   240    381    440      1
   241    382    384      1
   242    382    745      1
   243    384    387      1
   244    385    386      1
   245    386    387      1
   246    387    388      1
   247    388    390      1
   248    388    391      1
   249    389    390      1
   250    390    392      1
   251    391    394      1
   252    391    750      1
   253    392    394      1
   254    392    395      1
   255    393    394      1
   256    394    398      1
   257    395    397      1
   258    397    398      1
   259    398    400      1
   260    400    404      1
   261    402    405      1
   262    403    404      1
   263    404    405      1
   264    404    406      1
   265    405    407      1
   266    406    408      1
   267    406    759      1
   268    407    408      1
   269    407    409      1
   270    408    411      1
   271    409    410      1
   272    410    413      1
   273    411    412      1
   274    411    415      1
   275    413    414      1
   276    413    415      1
   277    413    416      1
   278    415    417      1
   279    417    418      1
   280    417    464      1
   281    418    467      1
   282    428    429      1
   283    429    430      1
   284    429    433      1
   285    430    431      1
   286    430    480      1
   287    431    432      1
   288    431    783      1
   289    432    434      1
   290    433    434      1
   291    439    441      1
   292    441    443      1
   293    441    493      1
   294    442    443      1
   295    443    446      1
   296    446    447      1
   297    447    449      1
   298    447    496      1
   299    449    451      1
   300    449    502      1
   301    450    451      1
   302    451    452      1
   303    459    460      1
   304    460    461      1
   305    461    464      1
   306    463    464      1
   307    471    525      1
   308    474    526      1
   309    475    476      1
   310    475    478      1
   311    476    479      1
   312    477    478      1
   313    477    824      1
   314    477    876      1
   315    478    481      1
   316    479    482      1
   317    481    482      1
   318    481    483      1
   319    482    484      1
   320    483    485      1
   321    483    486      1
   322    483    824      1
   323    484    487      1
   324    488    489      1
   325    489    490      1
   326    489    539      1
   327    490    492      1
   328    490    543      1
   329    492    493      1
   330    493    496      1
   331    494    495      1
   332    494    551      1
   333    494    834      1
   334    496    497      1
   335    507    845      1
   336    510    512      1
   337    512    514      1
   338    513    514      1
   339    514    516      1
   340    515    516      1
   341    515    572      1
   342    515    574      1
   343    516    517      1
   344    525    526      1
   345    530    584      1
   346    537    539      1
   347    538    540      1
   348    539    540      1
   349    540    543      1
   350    543    544      1
   351    543    547      1
   352    551    553      1
   353    551    893      1
   354    554    557      1
   355    554    895      1
   356    555    556      1
   357    556    557      1
   358    556    559      1
   359    557    558      1
   360    558    561      1
   361    558    898      1
   362    559    560      1
   363    559    561      1
   364    561    564      1
   365    562    563      1
   366    562    614      1
   367    562    617      1
   368    563    565      1
   369    564    566      1
   370    564    845      1
   371    565    567      1
   372    566    902      1
   373    566    904      1
   374    567    617      1
   375    575    577      1
   376    577    629      1
   377    577    912      1
   378    577    970      1
   379    578    580      1
   380    578    629      1
   381    578    631      1
   382    579    580      1
   383    580    582      1
   384    582    583      1
   385    582    632      1
   386    584    588      1
   387    584    875      1
   388    585    586      1
   389    585    587      1
   390    586    589      1
   391    586    636      1
   392    587    588      1
   393    587    590      1
   394    588    925      1
   395    589    590      1
   396    590    639      1
   397    596    598      1
   398    597    601      1
   399    598    599      1
   400    598    602      1
   401    598    646      1
   402    601    604      1
   403    602    603      1
   404    602    605      1
   405    603    607      1
   406    603    940      1
   407    605    655      1
   408    608    609      1
   409    610    655      1
   410    610    661      1
   411    613    614      1
   412    614    615      1
   413    615    618      1
   414    617    618      1
   415    618    621      1
   416    624    965      1
   417    625    627      1
   418    626    628      1
   419    626    970      1
   420    626    971      1
   421    626    973      1
   422    627    628      1
   423    627    630      1
   424    628    629      1
   425    630    631      1
   426    631    632      1
   427    633    635      1
   428    633    683      1
   429    633    977      1
   430    635    980      1
   431    637    692      1
   432    637    987      1
   433    639    988      1
   434    644    646      1
   435    646    649      1
   436    646    936      1
   437    651    654      1
   438    654    655      1
   439    661    662      1
   440    667    714      1
   441    667   1013      1
   442    671    719      1
   443    671    726      1
   444    671   1017      1
   445    672    723      1
   446    672    727      1
   447    673   1017      1
   448    689    691      1
   449    690    691      1
   450    690    692      1
   451    691    693      1
   452    692    695      1
   453    693    694      1
   454    695    990      1
   455    700    701      1
   456    700   1049      1
   457    701    703      1
   458    706    707      1
   459    706    708      1
   460    711    712      1
   461    712    713      1
   462    712    714      1
   463    713    715      1
   464    714   1070      1
   465    715   1070      1
   466    715   1071      1
   467    716    722      1
   468    717    723      1
   469    718    719      1
   470    719   1013      1
   471    721    722      1
   472    722    723      1
   473    735    736      1
   474    735   1096      1
   475    739   1103      1
   476    739   1108      1
   477    741    743      1
   478    743    745      1
   479    744    791      1
   480    747    796      1
   481    762    763      1
   482    763    764      1
   483    763    766      1
   484    764   1137      1
   485    764   1141      1
   486    766    768      1
   487    766    769      1
   488    769    771      1
   489    769   1141      1
   490    785    786      1
   491    785    829      1
   492    785   1162      1
   493    790    791      1
   494    790   1164      1
   495    790   1166      1
   496    791    793      1
   497    793    794      1
   498    793    796      1
   499    796   1171      1
   500    800    802      1
   501    801    802      1
   502    801    803      1
   503    801   1180      1
   504    802    804      1
   505    802    807      1
   506    803    805      1
   507    803   1182      1
   508    804    805      1
   509    804    806      1
   510    805    844      1
   511    817    818      1
   512    818    819      1
   513    818    870      1
   514    818   1207      1
   515    822    877      1
   516    822   1213      1
   517    823    824      1
   518    823    825      1
   519    823    878      1
   520    825    826      1
   521    825    827      1
   522    826    828      1
   523    826   1213      1
   524    827    829      1
   525    828    884      1
   526    828   1220      1
   527    829   1218      1
   528    831    834      1
   529    833    890      1
   530    833   1285      1
   531    834    890      1
   532    835    836      1
   533    836    837      1
   534    836   1234      1
   535    837    838      1
   536    837    839      1
   537    839    841      1
   538    839   1236      1
   539    845    847      1
   540    846    847      1
   541    847    902      1
   542    850    902      1
   543    860    862      1
   544    861    862      1
   545    861   1253      1
   546    861   1260      1
   547    862    865      1
   548    865    866      1
   549    865    868      1
   550    866    869      1
   551    866   1260      1
   552    870    872      1
   553    870   1271      1
   554    876    878      1
   555    877    878      1
   556    878    879      1
   557    889    891      1
   558    890    892      1
   559    891    892      1
   560    891    894      1
   561    892    893      1
   562    893    895      1
   563    894    895      1
   564    894    943      1
   565    895    896      1
   566    898    899      1
   567    898    953      1
   568    899    953      1
   569    911    913      1
   570    911    968      1
   571    911   1311      1
   572    913    974      1
   573    913   1316      1
   574    914    916      1
   575    914    918      1
   576    914   1316      1
   577    915    916      1
   578    916    919      1
   579    916    976      1
   580    917    920      1
   581    918    921      1
   582    918   1318      1
   583    920    921      1
   584    922    980      1
   585    923    924      1
   586    924    926      1
   587    924   1327      1
   588    926    991      1
   589    930    932      1
   590    931    933      1
   591    931    993      1
   592    932    933      1
   593    932   1336      1
   594    933    934      1
   595    934    936      1
   596    934    937      1
   597    935    937      1
   598    935   1336      1
   599    935   1337      1
   600    936    940      1
   601    937    939      1
   602    938    939      1
   603    939    940      1
   604    939    941      1
   605    941    942      1
   606    941    943      1
   607    942    946      1
   608    942   1003      1
   609    943    945      1
   610    945    946      1
   611    945    948      1
   612    946    947      1
   613    946    950      1
   614    951    953      1
   615    960    962      1
   616    960   1303      1
   617    960   1360      1
   618    961    963      1
   619    961   1019      1
   620    961   1360      1
   621    962    963      1
   622    962    966      1
   623    963    964      1
   624    964    965      1
   625    964   1020      1
   626    965    967      1
   627    966    967      1
   628    966    968      1
   629    967    970      1
   630    968    972      1
   631    970    972      1
   632    972    974      1
   633    974    976      1
   634    975    977      1
   635    976    978      1
   636    977    978      1
   637    978    980      1
   638    979   1371      1
   639    984    986      1
   640    985    988      1
   641    986    989      1
   642    986   1039      1
   643    987    988      1
   644    987    990      1
   645    988    993      1
   646    989    991      1
   647    989    992      1
   648    990    994      1
   649    991   1376      1
   650    992   1041      1
   651    992   1382      1
   652    993    995      1
   653    994    995      1
   654    994   1046      1
   655    995    996      1
   656    996    997      1
   657    996    998      1
   658    997   1046      1
   659    997   1048      1
   660    998    999      1
   661    998   1384      1
   662    999   1000      1
   663    999   1048      1
   664   1005   1063      1
   665   1006   1066      1
   666   1011   1013      1
   667   1013   1016      1
   668   1015   1016      1
   669   1016   1017      1
   670   1037   1040      1
   671   1038   1039      1
   672   1039   1041      1
   673   1040   1042      1
   674   1041   1042      1
   675   1042   1043      1
   676   1043   1044      1
   677   1045   1046      1
   678   1048   1050      1
   679   1048   1431      1
   680   1054   1438      1
   681   1063   1064      1
   682   1063   1066      1
   683   1064   1065      1
   684   1064   1068      1
   685   1066   1067      1
   686   1067   1068      1
   687   1067   1070      1
   688   1068   1069      1
   689   1072   1398      1
   690   1081   1083      1
   691   1083   1087      1
   692   1083   1416      1
   693   1086   1087      1
   694   1087   1090      1
   695   1089   1091      1
   696   1090   1094      1
   697   1090   1471      1
   698   1091   1092      1
   699   1092   1093      1
   700   1096   1100      1
   701   1100   1102      1
   702   1102   1103      1
   703   1102   1104      1
   704   1104   1106      1
   705   1105   1478      1
   706   1106   1107      1
   707   1106   1108      1
   708   1108   1110      1
   709   1109   1485      1
   710   1113   1114      1
   711   1113   1487      1
   712   1113   1492      1
   713   1115   1492      1
   714   1128   1130      1
   715   1129   1510      1
   716   1130   1131      1
   717   1131   1133      1
   718   1131   1136      1
   719   1132   1133      1
   720   1132   1134      1
   721   1132   1185      1
   722   1134   1135      1
   723   1134   1187      1
   724   1136   1137      1
   725   1138   1139      1
   726   1139   1140      1
   727   1139   1519      1
   728   1140   1191      1
   729   1140   1198      1
   730   1140   1572      1
   731   1141   1143      1
   732   1146   1149      1
   733   1146   1200      1
   734   1146   1525      1
   735   1152   1155      1
   736   1155   1157      1
   737   1155   1212      1
   738   1157   1158      1
   739   1157   1216      1
   740   1159   1160      1
   741   1160   1161      1
   742   1160   1538      1
   743   1161   1163      1
   744   1161   1542      1
   745   1162   1165      1
   746   1162   1219      1
   747   1163   1548      1
   748   1165   1166      1
   749   1165   1167      1
   750   1166   1169      1
   751   1167   1170      1
   752   1167   1225      1
   753   1168   1548      1
   754   1169   1171      1
   755   1169   1172      1
   756   1170   1172      1
   757   1170   1229      1
   758   1171   1174      1
   759   1172   1176      1
   760   1183   1185      1
   761   1184   1186      1
   762   1185   1186      1
   763   1186   1187      1
   764   1197   1198      1
   765   1198   1199      1
   766   1198   1200      1
   767   1200   1204      1
   768   1202   1206      1
   769   1203   1204      1
   770   1204   1576      1
   771   1205   1207      1
   772   1206   1208      1
   773   1206   1268      1
   774   1207   1208      1
   775   1209   1270      1
   776   1210   1212      1
   777   1212   1214      1
   778   1213   1214      1
   779   1213   1276      1
   780   1214   1215      1
   781   1215   1216      1
   782   1215   1217      1
   783   1216   1219      1
   784   1217   1220      1
   785   1217   1221      1
   786   1218   1219      1
   787   1218   1220      1
   788   1220   1223      1
   789   1222   1225      1
   790   1224   1226      1
   791   1225   1227      1
   792   1226   1283      1
   793   1226   1646      1
   794   1227   1229      1
   795   1227   1595      1
   796   1228   1284      1
   797   1228   1285      1
   798   1229   1231      1
   799   1230   1232      1
   800   1231   1233      1
   801   1232   1233      1
   802   1232   1234      1
   803   1233   1235      1
   804   1234   1236      1
   805   1235   1237      1
   806   1235   1238      1
   807   1236   1237      1
   808   1237   1291      1
   809   1260   1261      1
   810   1263   1265      1
   811   1265   1266      1
   812   1265   1269      1
   813   1265   1270      1
   814   1267   1269      1
   815   1268   1269      1
   816   1268   1271      1
   817   1270   1318      1
   818   1272   1273      1
   819   1272   1321      1
   820   1273   1274      1
   821   1273   1275      1
   822   1275   1277      1
   823   1275   1322      1
   824   1283   1284      1
   825   1283   1650      1
   826   1284   1286      1
   827   1285   1287      1
   828   1286   1287      1
   829   1286   1290      1
   830   1287   1289      1
   831   1288   1290      1
   832   1288   1650      1
   833   1288   1653      1
   834   1314   1679      1
   835   1315   1316      1
   836   1317   1318      1
   837   1319   1370      1
   838   1321   1322      1
   839   1322   1327      1
   840   1325   1328      1
   841   1327   1328      1
   842   1328   1329      1
   843   1329   1331      1
   844   1329   1376      1
   845   1330   1332      1
   846   1331   1332      1
   847   1331   1383      1
   848   1332   1701      1
   849   1335   1701      1
   850   1336   1384      1
   851   1338   1339      1
   852   1338   1340      1
   853   1338   1385      1
   854   1339   1342      1
   855   1339   1702      1
   856   1339   1757      1
   857   1340   1341      1
   858   1340   1343      1
   859   1342   1343      1
   860   1342   1707      1
   861   1343   1344      1
   862   1351   1354      1
   863   1352   1355      1
   864   1354   1355      1
   865   1354   1357      1
   866   1355   1358      1
   867   1357   1359      1
   868   1357   1716      1
   869   1358   1360      1
   870   1358   1361      1
   871   1359   1361      1
   872   1359   1721      1
   873   1361   1364      1
   874   1368   1369      1
   875   1369   1372      1
   876   1369   1419      1
   877   1369   1420      1
   878   1370   1372      1
   879   1370   1737      1
   880   1371   1373      1
   881   1371   1420      1
   882   1372   1373      1
   883   1376   1377      1
   884   1377   1378      1
   885   1378   1379      1
   886   1378   1381      1
   887   1381   1383      1
   888   1381   1747      1
   889   1383   1698      1
   890   1387   1388      1
   891   1387   1389      1
   892   1387   1757      1
   893   1388   1390      1
   894   1388   1756      1
   895   1398   1399      1
   896   1398   1452      1
   897   1399   1401      1
   898   1399   1455      1
   899   1402   1768      1
   900   1405   1407      1
   901   1405   1768      1
   902   1405   1774      1
   903   1410   1774      1
   904   1416   1471      1
   905   1420   1422      1
   906   1424   1786      1
   907   1425   1426      1
   908   1425   1785      1
   909   1426   1427      1
   910   1427   1786      1
   911   1427   1790      1
   912   1428   1429      1
   913   1432   1434      1
   914   1433   1435      1
   915   1434   1436      1
   916   1434   1756      1
   917   1435   1436      1
   918   1435   1438      1
   919   1436   1800      1
   920   1437   1440      1
   921   1437   1800      1
   922   1437   1804      1
   923   1438   1439      1
   924   1439   1440      1
   925   1439   1441      1
   926   1440   1442      1
   927   1442   1445      1
   928   1442   1807      1
   929   1447   1450      1
   930   1448   1451      1
   931   1450   1451      1
   932   1450   1452      1
   933   1451   1453      1
   934   1453   1455      1
   935   1453   1815      1
   936   1454   1456      1
   937   1455   1457      1
   938   1456   1457      1
   939   1457   1458      1
   940   1458   1459      1
   941   1458   1460      1
   942   1459   1818      1
   943   1459   1823      1
   944   1460   1461      1
   945   1471   1473      1
   946   1475   1535      1
   947   1476   1478      1
   948   1477   1479      1
   949   1477   1480      1
   950   1478   1481      1
   951   1479   1847      1
   952   1479   1850      1
   953   1480   1481      1
   954   1480   1482      1
   955   1481   1485      1
   956   1482   1483      1
   957   1482   1486      1
   958   1483   1546      1
   959   1483   1850      1
   960   1484   1854      1
   961   1485   1487      1
   962   1486   1487      1
   963   1486   1488      1
   964   1488   1494      1
   965   1488   1550      1
   966   1489   1493      1
   967   1489   1855      1
   968   1492   1494      1
   969   1493   1495      1
   970   1494   1496      1
   971   1495   1498      1
   972   1495   1860      1
   973   1496   1498      1
   974   1498   1499      1
   975   1499   1502      1
   976   1499   1863      1
   977   1507   1509      1
   978   1509   1510      1
   979   1511   1512      1
   980   1511   1514      1
   981   1511   1872      1
   982   1513   1514      1
   983   1513   1562      1
   984   1513   1566      1
   985   1514   1515      1
   986   1515   1516      1
   987   1516   1518      1
   988   1516   1566      1
   989   1517   1878      1
   990   1519   1521      1
   991   1520   1521      1
   992   1520   1522      1
   993   1521   1523      1
   994   1523   1525      1
   995   1523   1572      1
   996   1525   1526      1
   997   1526   1527      1
   998   1526   1579      1
   999   1527   1528      1
  1000   1527   1578      1
  1001   1530   1535      1
  1002   1530   1892      1
  1003   1531   1532      1
  1004   1532   1535      1
  1005   1532   1536      1
  1006   1536   1538      1
  1007   1537   1539      1
  1008   1538   1539      1
  1009   1539   1540      1
  1010   1540   1541      1
  1011   1540   1542      1
  1012   1541   1543      1
  1013   1542   1544      1
  1014   1543   1544      1
  1015   1543   1545      1
  1016   1544   1547      1
  1017   1545   1549      1
  1018   1545   1594      1
  1019   1546   1550      1
  1020   1546   1909      1
  1021   1547   1548      1
  1022   1547   1549      1
  1023   1549   1551      1
  1024   1550   1912      1
  1025   1562   1563      1
  1026   1562   1871      1
  1027   1564   1611      1
  1028   1566   1567      1
  1029   1570   1572      1
  1030   1576   1579      1
  1031   1577   1630      1
  1032   1578   1951      1
  1033   1582   1583      1
  1034   1582   1638      1
  1035   1583   1585      1
  1036   1583   1586      1
  1037   1586   1589      1
  1038   1586   1641      1
  1039   1589   1590      1
  1040   1589   1591      1
  1041   1591   1642      1
  1042   1591   1645      1
  1043   1605   1609      1
  1044   1606   1607      1
  1045   1606   1608      1
  1046   1606   1984      1
  1047   1607   1611      1
  1048   1607   1928      1
  1049   1608   1609      1
  1050   1608   1610      1
  1051   1609   1612      1
  1052   1610   1669      1
  1053   1611   1612      1
  1054   1612   1613      1
  1055   1627   1628      1
  1056   1628   1629      1
  1057   1628   1630      1
  1058   1629   1685      1
  1059   1629   2000      1
  1060   1630   1632      1
  1061   1630   2003      1
  1062   1633   1637      1
  1063   1633   1690      1
  1064   1634   1691      1
  1065   1635   1638      1
  1066   1638   1641      1
  1067   1641   1642      1
  1068   1645   1646      1
  1069   1646   1647      1
  1070   1647   1650      1
  1071   1648   1704      1
  1072   1659   1709      1
  1073   1665   1666      1
  1074   1665   1667      1
  1075   1665   2028      1
  1076   1666   1668      1
  1077   1667   1719      1
  1078   1667   2087      1
  1079   1668   1669      1
  1080   1668   1670      1
  1081   1669   1672      1
  1082   1670   1671      1
  1083   1670   1673      1
  1084   1672   1673      1
  1085   1672   1988      1
  1086   1673   1676      1
  1087   1678   1679      1
  1088   1678   1727      1
  1089   1678   1730      1
  1090   1679   1680      1
  1091   1680   1681      1
  1092   1680   1682      1
  1093   1681   1683      1
  1094   1681   1687      1
  1095   1681   1730      1
  1096   1682   1685      1
  1097   1684   1686      1
  1098   1685   1688      1
  1099   1686   1687      1
  1100   1686   1689      1
  1101   1686   1737      1
  1102   1687   1739      1
  1103   1688   2045      1
  1104   1690   1691      1
  1105   1691   2052      1
  1106   1695   2057      1
  1107   1697   1699      1
  1108   1697   1748      1
  1109   1697   2065      1
  1110   1698   1701      1
  1111   1698   1749      1
  1112   1699   1700      1
  1113   1700   1701      1
  1114   1703   1705      1
  1115   1703   2124      1
  1116   1704   1705      1
  1117   1704   1708      1
  1118   1705   1706      1
  1119   1706   1710      1
  1120   1706   2125      1
  1121   1708   1709      1
  1122   1709   1710      1
  1123   1717   1719      1
  1124   1719   1720      1
  1125   1720   1722      1
  1126   1720   2089      1
  1127   1724   1725      1
  1128   1725   1726      1
  1129   1725   1728      1
  1130   1726   1731      1
  1131   1726   1771      1
  1132   1727   1728      1
  1133   1728   1733      1
  1134   1729   1730      1
  1135   1729   1731      1
  1136   1731   1732      1
  1137   1731   1734      1
  1138   1733   1734      1
  1139   1733   1735      1
  1140   1734   1736      1
  1141   1738   1739      1
  1142   1740   1741      1
  1143   1740   1783      1
  1144   1741   2053      1
  1145   1742   1744      1
  1146   1742   1787      1
  1147   1742   1791      1
  1148   1742   2114      1
  1149   1743   1745      1
  1150   1744   1745      1
  1151   1744   1746      1
  1152   1745   1747      1
  1153   1746   1748      1
  1154   1746   2116      1
  1155   1747   1749      1
  1156   1748   1749      1
  1157   1751   1754      1
  1158   1751   2120      1
  1159   1751   2122      1
  1160   1752   1753      1
  1161   1753   1755      1
  1162   1753   1757      1
  1163   1754   1755      1
  1164   1754   1799      1
  1165   1755   1756      1
  1166   1756   1801      1
  1167   1766   1767      1
  1168   1767   1768      1
  1169   1767   1769      1
  1170   1769   1772      1
  1171   1769   1824      1
  1172   1772   1773      1
  1173   1772   1829      1
  1174   1773   1774      1
  1175   1773   1775      1
  1176   1778   1782      1
  1177   1782   2106      1
  1178   1783   1784      1
  1179   1784   1787      1
  1180   1785   1786      1
  1181   1786   1789      1
  1182   1792   1793      1
  1183   1793   1794      1
  1184   1793   2160      1
  1185   1794   1796      1
  1186   1795   1796      1
  1187   1796   1797      1
  1188   1797   1798      1
  1189   1798   1799      1
  1190   1798   2166      1
  1191   1799   1801      1
  1192   1800   1802      1
  1193   1801   1802      1
  1194   1802   1804      1
  1195   1804   1807      1
  1196   1807   1809      1
  1197   1812   1813      1
  1198   1813   1814      1
  1199   1813   1816      1
  1200   1814   1816      1
  1201   1815   1816      1
  1202   1817   1820      1
  1203   1818   1820      1
  1204   1819   1822      1
  1205   1819   2184      1
  1206   1819   2186      1
  1207   1820   1821      1
  1208   1821   1822      1
  1209   1821   1823      1
  1210   1822   1824      1
  1211   1823   1825      1
  1212   1824   2134      1
  1213   1826   1830      1
  1214   1827   1830      1
  1215   1834   2195      1
  1216   1840   1842      1
  1217   1842   2202      1
  1218   1845   1846      1
  1219   1846   1849      1
  1220   1848   1849      1
  1221   1848   2207      1
  1222   1848   2209      1
  1223   1849   1851      1
  1224   1850   1903      1
  1225   1851   1852      1
  1226   1851   1853      1
  1227   1852   1854      1
  1228   1854   1855      1
  1229   1855   1856      1
  1230   1855   1857      1
  1231   1859   1860      1
  1232   1860   1862      1
  1233   1861   1862      1
  1234   1862   1863      1
  1235   1863   1864      1
  1236   1865   1866      1
  1237   1866   1867      1
  1238   1866   1870      1
  1239   1868   1871      1
  1240   1869   1872      1
  1241   1870   1873      1
  1242   1870   2222      1
  1243   1871   1872      1
  1244   1877   1879      1
  1245   1878   1879      1
  1246   1878   1882      1
  1247   1879   1882      1
  1248   1888   1889      1
  1249   1892   1895      1
  1250   1893   1894      1
  1251   1894   1895      1
  1252   1894   1896      1
  1253   1895   1897      1
  1254   1896   1899      1
  1255   1896   2250      1
  1256   1897   1898      1
  1257   1897   1958      1
  1258   1898   1900      1
  1259   1898   1901      1
  1260   1899   1900      1
  1261   1899   1902      1
  1262   1900   1903      1
  1263   1902   1906      1
  1264   1902   2254      1
  1265   1906   1907      1
  1266   1906   2256      1
  1267   1919   1920      1
  1268   1920   1924      1
  1269   1920   2274      1
  1270   1921   1924      1
  1271   1923   1924      1
  1272   1924   1926      1
  1273   1926   1927      1
  1274   1926   1929      1
  1275   1926   2276      1
  1276   1934   2282      1
  1277   1937   1939      1
  1278   1937   2282      1
  1279   1937   2284      1
  1280   1941   2284      1
  1281   1950   1951      1
  1282   1951   1952      1
  1283   1953   2003      1
  1284   1971   2321      1
  1285   1976   1980      1
  1286   1977   1980      1
  1287   1978   1980      1
  1288   1978   1982      1
  1289   1978   2321      1
  1290   1980   1983      1
  1291   1982   1983      1
  1292   1982   2024      1
  1293   1983   1985      1
  1294   1993   1996      1
  1295   1996   1997      1
  1296   1996   2342      1
  1297   1997   1998      1
  1298   1997   2296      1
  1299   1998   1999      1
  1300   1998   2347      1
  1301   1999   2002      1
  1302   1999   2043      1
  1303   2000   2001      1
  1304   2000   2045      1
  1305   2001   2003      1
  1306   2002   2350      1
  1307   2004   2005      1
  1308   2004   2006      1
  1309   2005   2007      1
  1310   2005   2354      1
  1311   2006   2008      1
  1312   2006   2055      1
  1313   2007   2009      1
  1314   2007   2359      1
  1315   2008   2009      1
  1316   2008   2060      1
  1317   2009   2010      1
  1318   2010   2011      1
  1319   2010   2361      1
  1320   2010   2365      1
  1321   2021   2022      1
  1322   2022   2023      1
  1323   2022   2073      1
  1324   2022   2374      1
  1325   2023   2079      1
  1326   2023   2378      1
  1327   2024   2026      1
  1328   2024   2377      1
  1329   2025   2378      1
  1330   2027   2029      1
  1331   2028   2029      1
  1332   2028   2081      1
  1333   2029   2085      1
  1334   2036   2038      1
  1335   2038   2039      1
  1336   2038   2100      1
  1337   2038   2456      1
  1338   2039   2041      1
  1339   2040   2041      1
  1340   2041   2042      1
  1341   2042   2043      1
  1342   2042   2044      1
  1343   2042   2046      1
  1344   2043   2045      1
  1345   2044   2047      1
  1346   2044   2394      1
  1347   2047   2102      1
  1348   2047   2107      1
  1349   2048   2050      1
  1350   2048   2052      1
  1351   2049   2109      1
  1352   2050   2053      1
  1353   2051   2055      1
  1354   2052   2057      1
  1355   2053   2057      1
  1356   2054   2056      1
  1357   2054   2109      1
  1358   2054   2113      1
  1359   2055   2058      1
  1360   2057   2058      1
  1361   2058   2059      1
  1362   2059   2060      1
  1363   2059   2062      1
  1364   2060   2063      1
  1365   2061   2064      1
  1366   2061   2408      1
  1367   2063   2064      1
  1368   2063   2365      1
  1369   2064   2066      1
  1370   2066   2068      1
  1371   2066   2413      1
  1372   2068   2070      1
  1373   2068   2123      1
  1374   2072   2123      1
  1375   2082   2084      1
  1376   2083   2084      1
  1377   2083   2437      1
  1378   2083   2486      1
  1379   2084   2086      1
  1380   2085   2086      1
  1381   2085   2087      1
  1382   2086   2443      1
  1383   2087   2089      1
  1384   2089   2090      1
  1385   2099   2100      1
  1386   2100   2451      1
  1387   2101   2103      1
  1388   2101   2146      1
  1389   2101   2452      1
  1390   2102   2103      1
  1391   2102   2456      1
  1392   2103   2105      1
  1393   2104   2105      1
  1394   2104   2146      1
  1395   2104   2149      1
  1396   2106   2149      1
  1397   2108   2109      1
  1398   2108   2110      1
  1399   2110   2111      1
  1400   2110   2153      1
  1401   2111   2112      1
  1402   2111   2113      1
  1403   2112   2114      1
  1404   2113   2115      1
  1405   2114   2116      1
  1406   2115   2116      1
  1407   2115   2117      1
  1408   2119   2120      1
  1409   2120   2166      1
  1410   2122   2124      1
  1411   2123   2419      1
  1412   2124   2125      1
  1413   2129   2131      1
  1414   2130   2132      1
  1415   2131   2132      1
  1416   2131   2135      1
  1417   2132   2134      1
  1418   2133   2486      1
  1419   2134   2138      1
  1420   2134   2186      1
  1421   2135   2136      1
  1422   2135   2138      1
  1423   2138   2139      1
  1424   2138   2189      1
  1425   2140   2499      1
  1426   2143   2144      1
  1427   2143   2499      1
  1428   2143   2501      1
  1429   2144   2145      1
  1430   2144   2146      1
  1431   2150   2151      1
  1432   2151   2202      1
  1433   2153   2156      1
  1434   2155   2512      1
  1435   2156   2465      1
  1436   2156   2512      1
  1437   2157   2159      1
  1438   2159   2160      1
  1439   2161   2518      1
  1440   2164   2166      1
  1441   2169   2170      1
  1442   2170   2173      1
  1443   2170   2174      1
  1444   2171   2173      1
  1445   2172   2174      1
  1446   2173   2176      1
  1447   2174   2175      1
  1448   2175   2176      1
  1449   2175   2177      1
  1450   2176   2181      1
  1451   2180   2181      1
  1452   2180   2534      1
  1453   2181   2182      1
  1454   2181   2533      1
  1455   2183   2186      1
  1456   2184   2185      1
  1457   2186   2187      1
  1458   2190   2192      1
  1459   2191   2193      1
  1460   2192   2193      1
  1461   2192   2194      1
  1462   2193   2195      1
  1463   2194   2196      1
  1464   2194   2548      1
  1465   2195   2197      1
  1466   2196   2197      1
  1467   2196   2199      1
  1468   2197   2200      1
  1469   2198   2199      1
  1470   2199   2201      1
  1471   2200   2202      1
  1472   2201   2203      1
  1473   2201   2557      1
  1474   2204   2205      1
  1475   2205   2206      1
  1476   2208   2209      1
  1477   2208   2210      1
  1478   2209   2211      1
  1479   2212   2214      1
  1480   2213   2214      1
  1481   2214   2217      1
  1482   2219   2220      1
  1483   2220   2221      1
  1484   2220   2223      1
  1485   2221   2222      1
  1486   2222   2224      1
  1487   2223   2224      1
  1488   2223   2225      1
  1489   2224   2226      1
  1490   2225   2227      1
  1491   2226   2229      1
  1492   2226   2278      1
  1493   2227   2229      1
  1494   2228   2536      1
  1495   2228   2539      1
  1496   2229   2230      1
  1497   2230   2283      1
  1498   2238   2240      1
  1499   2240   2241      1
  1500   2240   2242      1
  1501   2241   2244      1
  1502   2242   2243      1
  1503   2245   2246      1
  1504   2248   2304      1
  1505   2250   2251      1
  1506   2250   2304      1
  1507   2251   2253      1
  1508   2251   2254      1
  1509   2251   2308      1
  1510   2254   2313      1
  1511   2256   2258      1
  1512   2256   2313      1
  1513   2259   2263      1
  1514   2261   2263      1
  1515   2263   2264      1
  1516   2264   2265      1
  1517   2274   2276      1
  1518   2276   2278      1
  1519   2279   2281      1
  1520   2280   2281      1
  1521   2280   2282      1
  1522   2281   2283      1
  1523   2283   2285      1
  1524   2284   2285      1
  1525   2292   2293      1
  1526   2292   2296      1
  1527   2292   2342      1
  1528   2296   2298      1
  1529   2303   2305      1
  1530   2304   2305      1
  1531   2305   2308      1
  1532   2307   2359      1
  1533   2308   2311      1
  1534   2309   2310      1
  1535   2309   2357      1
  1536   2309   2362      1
  1537   2310   2311      1
  1538   2311   2312      1
  1539   2312   2313      1
  1540   2312   2314      1
  1541   2320   2322      1
  1542   2321   2322      1
  1543   2322   2376      1
  1544   2334   2335      1
  1545   2335   2336      1
  1546   2335   2337      1
  1547   2336   2338      1
  1548   2337   2339      1
  1549   2337   2384      1
  1550   2338   2339      1
  1551   2338   2340      1
  1552   2341   2342      1
  1553   2346   2347      1
  1554   2347   2350      1
  1555   2355   2356      1
  1556   2356   2357      1
  1557   2356   2358      1
  1558   2358   2360      1
  1559   2359   2361      1
  1560   2360   2363      1
  1561   2360   2364      1
  1562   2362   2363      1
  1563   2364   2365      1
  1564   2364   2411      1
  1565   2366   2367      1
  1566   2367   2368      1
  1567   2367   2414      1
  1568   2367   2418      1
  1569   2368   2370      1
  1570   2371   2374      1
  1571   2372   2373      1
  1572   2373   2375      1
  1573   2374   2375      1
  1574   2374   2425      1
  1575   2375   2376      1
  1576   2376   2377      1
  1577   2377   2378      1
  1578   2378   2429      1
  1579   2391   2455      1
  1580   2392   2394      1
  1581   2394   2395      1
  1582   2394   2456      1
  1583   2402   2405      1
  1584   2402   2407      1
  1585   2404   2405      1
  1586   2405   2409      1
  1587   2406   2408      1
  1588   2407   2410      1
  1589   2408   2413      1
  1590   2409   2410      1
  1591   2409   2411      1
  1592   2410   2412      1
  1593   2411   2414      1
  1594   2412   2415      1
  1595   2412   2467      1
  1596   2413   2470      1
  1597   2414   2417      1
  1598   2415   2416      1
  1599   2415   2417      1
  1600   2416   2419      1
  1601   2416   2470      1
  1602   2419   2420      1
  1603   2424   2425      1
  1604   2425   2429      1
  1605   2429   2432      1
  1606   2431   2437      1
  1607   2432   2435      1
  1608   2432   2436      1
  1609   2433   2438      1
  1610   2435   2437      1
  1611   2435   2440      1
  1612   2436   2441      1
  1613   2437   2439      1
  1614   2438   2439      1
  1615   2438   2442      1
  1616   2439   2485      1
  1617   2440   2441      1
  1618   2440   2443      1
  1619   2441   2444      1
  1620   2442   2488      1
  1621   2443   2445      1
  1622   2451   2452      1
  1623   2451   2453      1
  1624   2452   2499      1
  1625   2453   2454      1
  1626   2453   2456      1
  1627   2454   2455      1
  1628   2454   2457      1
  1629   2457   2459      1
  1630   2464   2465      1
  1631   2465   2518      1
  1632   2466   2519      1
  1633   2469   2470      1
  1634   2482   2533      1
  1635   2484   2487      1
  1636   2485   2486      1
  1637   2485   2487      1
  1638   2487   2488      1
  1639   2487   2489      1
  1640   2490   2492      1
  1641   2490   2540      1
  1642   2491   2543      1
  1643   2492   2494      1
  1644   2492   2543      1
  1645   2493   2494      1
  1646   2493   2495      1
  1647   2494   2496      1
  1648   2496   2500      1
  1649   2496   2545      1
  1650   2498   2499      1
  1651   2512   2514      1
  1652   2513   2514      1
  1653   2513   2515      1
  1654   2514   2516      1
  1655   2516   2517      1
  1656   2516   2519      1
  1657   2518   2519      1
  1658   2526   2528      1
  1659   2528   2529      1
  1660   2531   2533      1
  1661   2533   2535      1
  1662   2534   2535      1
  1663   2536   2537      1
  1664   2537   2538      1
  1665   2538   2539      1
  1666   2538   2540      1
  1667   2539   2541      1
  1668   2543   2545      1
  1669   2545   2546      1
  1670   2547   2549      1
  1671   2549   2550      1
  1672   2554   2557      1
  1673   2558   2559     du
  1674   2559   2560     du
  1675   2560   2561     du
  1676   2561   2558     du
  1677   2562   2563     du
  1678   2563   2564     du
  1679   2564   2565     du
  1680   2565   2562     du
  1681   2561   2565     du
  1682   2562   2558     du
  1683   2560   2564     du
  1684   2563   2559     du
