@<TRIPOS>MOLECULE
LAMMPS data file via write_data, version 29 Oct 2020, timestep = 100 > lmp2SYBYLmol2 v3.0 / 24 May 2023 w/remove_PBC_bonds=True
  2728 3013    0    0    0
SMALL
NO_CHARGES
****
Energy = 0

@<TRIPOS>ATOM
      1 C          -15.4569   -13.0249   -13.3786 C       1      m1     0.0018
      2 C          -14.1059   -12.4016   -12.8791 C       1      m1     0.0021
      3 C          -13.8781   -10.7397   -12.7360 C       1      m1    -0.0203
      4 C          -13.2020   -13.4023   -12.7541 C       1      m1    -0.0006
      5 H          -12.8505   -10.4152   -12.7044 H       1      m1     0.0183
      6 C          -12.8483   -11.6817   -10.2900 C       1      m1    -0.0155
      7 C          -12.6315    14.5126   -12.4520 C       1      m1    -0.0023
      8 H          -12.0885   -11.3460   -11.0381 H       1      m1     0.0184
      9 C          -10.2273   -14.0703   -11.3448 C       1      m1     0.0013
     10 H           -9.7412   -12.5575   -13.7519 H       1      m1     0.0230
     11 C           -9.0176   -13.9458   -12.2915 C       1      m1     0.0008
     12 C           -9.0514   -13.2001   -14.3467 C       1      m1    -0.0126
     13 C           -9.1276   -10.7808   -12.7810 C       1      m1    -0.0074
     14 H           -8.6912   -10.7954   -10.7589 H       1      m1     0.0220
     15 C           -8.1829   -10.9660   -11.6447 C       1      m1    -0.0162
     16 C           -8.0838   -14.2030   -11.3097 C       1      m1     0.0022
     17 H           -8.1024    13.9673   -13.9945 H       1      m1     0.0189
     18 C           -6.7612   -10.9403   -12.0429 C       1      m1    -0.0009
     19 C           -5.8152   -11.8932   -12.7105 C       1      m1     0.0001
     20 C           -5.2446   -13.1181   -11.9921 C       1      m1    -0.0027
     21 C           -5.2825   -11.2910   -13.9068 C       1      m1    -0.0229
     22 C           -4.7079   -14.1472   -12.9986 C       1      m1    -0.0128
     23 H           -4.3991   -10.8909   -14.2809 H       1      m1     0.0277
     24 C           -4.1536   -13.3829   -11.1021 C       1      m1    -0.0134
     25 H           -3.3857   -14.2030   -11.2568 H       1      m1     0.0173
     26 C           -3.1723   -12.3029   -11.2798 C       1      m1    -0.0148
     27 H           -3.5375   -11.5054   -12.1586 H       1      m1     0.0592
     28 H           -2.9056   -12.4185   -14.2963 H       1      m1     0.0208
     29 C           -1.9439   -13.0158   -14.3609 C       1      m1    -0.0076
     30 C           -1.8724   -12.0210   -10.5803 C       1      m1     0.0094
     31 H           -1.2365   -13.9408   -12.3439 H       1      m1     0.0118
     32 C           -1.1644   -10.9007   -11.0132 C       1      m1    -0.0615
     33 C           -1.2529   -13.9022   -13.4693 C       1      m1    -0.0191
     34 H           -0.0713   -10.7911   -10.8220 H       1      m1     0.0214
     35 C            0.1573   -14.0104   -13.8953 C       1      m1    -0.0069
     36 H            2.0145   -11.0670   -13.8406 H       1      m1     0.0230
     37 C            2.8846   -11.0160   -12.9462 C       1      m1    -0.0518
     38 H            2.7722   -11.1526   -11.8799 H       1      m1     0.0309
     39 C            3.5587   -13.0884   -12.4394 C       1      m1     0.0072
     40 C            3.5826   -12.1663   -13.5620 C       1      m1    -0.0225
     41 H            3.4765   -12.5794   -14.4618 H       1      m1     0.0176
     42 C            3.9017   -12.4838   -11.1761 C       1      m1    -0.0032
     43 C            4.3058   -14.3458   -12.5110 C       1      m1    -0.0457
     44 C            5.1015   -12.0525   -10.8919 C       1      m1     0.0069
     45 H            6.0816   -11.4574   -13.3569 H       1      m1     0.0198
     46 C            5.5878   -13.9820   -13.1784 C       1      m1     0.0205
     47 C            6.1326   -12.6531   -13.5129 C       1      m1    -0.0227
     48 C            6.4264   -11.6340   -10.8199 C       1      m1     0.0042
     49 C            7.7216   -11.0984   -11.0575 C       1      m1     0.0017
     50 C            7.6066   -12.4326   -13.6212 C       1      m1    -0.0069
     51 C            8.3866   -13.5418   -13.0587 C       1      m1     0.0012
     52 C            9.8583   -13.4997   -12.4675 C       1      m1    -0.0208
     53 C            9.9553   -10.6565   -10.9541 C       1      m1     0.0011
     54 H           10.1760   -12.6871   -12.0603 H       1      m1     0.0288
     55 C           12.4914   -12.9443   -14.1480 C       1      m1     0.0046
     56 C           12.8142   -14.2156    14.4559 C       1      m1    -0.0036
     57 C           12.8418   -11.0607   -12.5187 C       1      m1     0.0248
     58 C           13.0126   -12.3579   -12.7953 C       1      m1    -0.0106
     59 C           13.8938   -12.6151   -10.4289 C       1      m1    -0.0153
     60 C           14.2122   -12.8349   -12.1220 C       1      m1    -0.0037
     61 C           15.5131   -13.4241   -12.3483 C       1      m1     0.0024
     62 C          -16.0232    -7.7227   -13.1784 C       1      m1     0.0168
     63 C          -15.9034    -7.8943   -10.6331 C       1      m1     0.0029
     64 C          -15.3338    -7.8594   -14.4451 C       1      m1    -0.0545
     65 C          -15.4180    -9.3231   -14.4287 C       1      m1    -0.0061
     66 C          -14.6071   -10.1378   -13.5440 C       1      m1     0.0019
     67 C          -14.5789    -7.3801   -10.4700 C       1      m1    -0.0098
     68 C          -13.4965    -6.2734   -12.1228 C       1      m1    -0.0165
     69 C          -13.4621    -6.7785   -10.5316 C       1      m1     0.0000
     70 H          -10.7880    -8.5320   -11.8771 H       1      m1     0.0185
     71 C           -9.9841    -7.7252   -11.9960 C       1      m1    -0.0331
     72 H           -9.4229    -8.1330   -11.0656 H       1      m1     0.0187
     73 C           -9.3870    -9.5426   -13.7179 C       1      m1    -0.0060
     74 C           -9.3035    -8.3600   -12.9743 C       1      m1     0.0000
     75 C           -8.4340    -7.0687   -14.4566 C       1      m1    -0.0042
     76 C           -8.2440    -7.3971   -13.0885 C       1      m1    -0.0002
     77 C           -7.7730    -6.3181   -12.0957 C       1      m1    -0.0043
     78 H           -7.7304    -8.8613   -10.1586 H       1      m1     0.0170
     79 C           -6.6075    -8.8384   -10.3794 C       1      m1    -0.0150
     80 C           -5.8248   -10.0358   -11.1238 C       1      m1    -0.0130
     81 H           -5.1512    -8.1146   -12.3607 H       1      m1     0.0481
     82 H           -5.1708    -9.8314   -11.9863 H       1      m1     0.0536
     83 C           -4.4333    -7.3430   -12.3939 C       1      m1    -0.1406
     84 C           -3.2909    -7.9583   -12.4822 C       1      m1     0.2198
     85 O           -2.8626    -9.3079   -11.8702 O       1      m1    -0.5464
     86 C           -2.3313    -7.2092   -12.9370 C       1      m1     0.1639
     87 C           -1.4395    -9.7491   -11.7926 C       1      m1     0.2548
     88 C           -0.9489    -7.5638   -12.6858 C       1      m1     0.0218
     89 C           -0.5335    -8.7621   -12.0312 C       1      m1    -0.0739
     90 C            0.0284    -6.4744   -13.3918 C       1      m1    -0.0282
     91 H            0.3974    -8.9997   -11.7614 H       1      m1     0.0447
     92 H            1.1550    -6.3719   -13.5101 H       1      m1     0.0717
     93 O            3.1288    -7.1496   -12.5806 O       1      m1    -0.4898
     94 H            3.4396   -10.0447   -13.0447 H       1      m1     0.0529
     95 H            6.3109    -8.3840   -12.0522 H       1      m1     0.0348
     96 H            6.7713    -6.2059   -11.8529 H       1      m1     0.0301
     97 C            6.2251    -6.6528   -10.7291 C       1      m1    -0.0011
     98 C            6.3477    -9.0722   -11.0159 C       1      m1    -0.0055
     99 C            6.9628    -9.3278   -13.7227 C       1      m1    -0.0167
    100 C            7.0479    -7.9199   -13.7272 C       1      m1     0.0253
    101 C            7.5298    -6.6251   -14.0658 C       1      m1    -0.0339
    102 C            7.6987   -10.1627   -14.2031 C       1      m1     0.0214
    103 C            7.6539    -9.6277   -10.7394 C       1      m1    -0.0235
    104 H            8.3356    -9.0056   -10.2205 H       1      m1     0.0648
    105 H            9.6422    -9.9415   -11.7585 H       1      m1     0.0553
    106 C            9.6638    -6.3084   -14.1784 C       1      m1    -0.0402
    107 H           12.5094    -8.9867   -12.2575 H       1      m1     0.0529
    108 C           13.0035    -9.7543   -12.1701 C       1      m1    -0.0265
    109 C           13.3734   -10.0226   -10.7287 C       1      m1     0.0097
    110 C           13.7403    -6.7278   -10.7972 C       1      m1     0.0112
    111 C           14.1868    -6.7857   -12.1537 C       1      m1     0.0031
    112 C           15.4451    -7.3911   -11.9394 C       1      m1    -0.0130
    113 C          -15.7912    -4.2490   -12.9318 C       1      m1     0.0012
    114 H          -14.7887    -3.2641   -10.4555 H       1      m1     0.0506
    115 C          -14.6276    -3.1223   -12.5921 C       1      m1     0.0090
    116 H          -14.5298    -5.6931   -12.5979 H       1      m1     0.0287
    117 C          -13.4499    -3.3878   -12.0445 C       1      m1    -0.0210
    118 H          -13.4821    -4.3705   -11.8355 H       1      m1     0.0267
    119 C          -12.7429    -2.2713   -11.8801 C       1      m1     0.0699
    120 C          -12.3554    -5.7316   -12.6479 C       1      m1     0.0116
    121 C          -11.2435    -5.6986   -13.3972 C       1      m1     0.0094
    122 C          -10.6307    -5.1151   -10.9951 C       1      m1    -0.0044
    123 C          -10.4213    -2.5483   -10.2704 C       1      m1    -0.0025
    124 C          -10.2516    -6.1326   -12.3464 C       1      m1     0.0012
    125 C          -10.1714    -3.7394   -11.2274 C       1      m1     0.0184
    126 C           -8.8506    -4.0242   -11.8749 C       1      m1    -0.0028
    127 C           -8.8003    -5.3672   -12.6775 C       1      m1     0.0015
    128 C           -8.6449    -5.4351   -14.3208 C       1      m1    -0.0183
    129 H           -7.8979    -2.7125   -12.6228 H       1      m1     0.0236
    130 C           -7.6695    -3.1628   -11.5897 C       1      m1    -0.0168
    131 C           -6.7040    -5.4348   -11.9362 C       1      m1     0.0083
    132 C           -6.5650    -3.1647   -10.7942 C       1      m1    -0.0010
    133 C           -6.5714    -5.5343   -10.4319 C       1      m1    -0.0056
    134 H           -5.5826    -4.2422   -13.1009 H       1      m1     0.0435
    135 C           -5.4531    -5.2633   -12.8211 C       1      m1    -0.0633
    136 C           -5.2848    -2.5821   -11.2075 C       1      m1    -0.0051
    137 C           -4.4523    -3.5237   -10.9612 C       1      m1     0.0045
    138 C           -4.2292    -6.0247   -12.5920 C       1      m1     0.2492
    139 C           -3.1270    -4.0068   -10.9633 C       1      m1    -0.0070
    140 O           -2.8139    -5.7951   -13.1035 O       1      m1    -0.5155
    141 C           -2.5413    -2.8204   -10.9989 C       1      m1     0.0081
    142 H           -0.6196    -5.5780   -13.6288 H       1      m1     0.0695
    143 H            0.6483    -3.4022   -10.5721 H       1      m1     0.0174
    144 C            0.6023    -4.0132   -12.6058 C       1      m1     0.0069
    145 C            0.4758    -3.6446   -13.7242 C       1      m1    -0.0017
    146 C            0.9839    -4.2819   -11.2320 C       1      m1    -0.0187
    147 C            2.2595    -2.4407   -11.5228 C       1      m1    -0.0072
    148 C            2.3466    -3.6873   -10.8662 C       1      m1     0.0090
    149 C            3.1536    -5.9935   -12.0698 C       1      m1     0.3216
    150 C            3.4092    -4.7079   -11.3777 C       1      m1    -0.0835
    151 C            5.7632    -2.4148   -10.8163 C       1      m1    -0.0149
    152 C            5.9839    -3.0529   -11.7889 C       1      m1     0.0412
    153 C            6.0905    -3.8863   -12.7822 C       1      m1    -0.0578
    154 C            6.5278    -5.7219   -14.2895 C       1      m1    -0.0422
    155 C            6.9196    -4.4779   -13.3973 C       1      m1     0.2013
    156 O            8.5086    -4.1381   -13.4133 O       1      m1    -0.4578
    157 C            8.7013    -5.7087   -13.8344 C       1      m1     0.2060
    158 H            9.2581    -3.8153   -10.9008 H       1      m1     0.0612
    159 C           10.3756    -3.6164   -10.8155 C       1      m1    -0.0009
    160 C           11.0540    -3.2719   -12.0003 C       1      m1    -0.0037
    161 C           11.8642    -4.2443   -12.6905 C       1      m1     0.0260
    162 C           11.7904    -3.8371   -14.1052 C       1      m1    -0.0078
    163 H           11.9427    -2.9024    14.2866 H       1      m1     0.0141
    164 C           13.1600    -4.9248   -12.3153 C       1      m1    -0.0063
    165 C           13.3040    -5.3123   -10.8400 C       1      m1     0.0036
    166 C           14.0418    -5.7675   -13.0952 C       1      m1     0.0033
    167 H           14.3831    -2.2468   -10.9251 H       1      m1     0.0092
    168 C           15.3484    -5.0445   -13.0648 C       1      m1     0.0036
    169 H           15.7723    -0.2106   -13.1481 H       1      m1     0.0236
    170 C          -14.8381    -1.7930   -12.8431 C       1      m1     0.0258
    171 C          -14.1543     1.6082   -11.0086 C       1      m1    -0.0550
    172 C          -13.6668    -1.2814   -12.4745 C       1      m1     0.0642
    173 H          -13.6293     1.6392   -11.9088 H       1      m1     0.0455
    174 C          -13.4260    -0.2487   -13.2969 C       1      m1     0.0038
    175 C          -12.3223     0.3684   -12.9196 C       1      m1     0.0300
    176 C          -11.6104    -1.9089   -11.0072 C       1      m1     0.0258
    177 C          -11.0537     0.2158   -12.1715 C       1      m1     0.0484
    178 C          -11.2904    -0.4268   -11.0081 C       1      m1     0.0328
    179 O          -11.0642    -1.7357   -13.9501 O       1      m1    -0.5806
    180 C           -9.6922     1.4470   -13.9332 C       1      m1     0.0023
    181 C           -9.7009     0.7141   -12.6683 C       1      m1    -0.0113
    182 C           -9.4948    -1.6818   -14.0148 C       1      m1     0.2134
    183 C           -8.9543    -0.6931   -13.1955 C       1      m1    -0.0219
    184 H           -9.0195     1.3876   -11.9568 H       1      m1     0.0187
    185 C           -7.5783    -0.8780   -13.0112 C       1      m1    -0.0027
    186 C           -7.3709    -1.9260   -14.1585 C       1      m1    -0.0040
    187 H           -6.9393     0.2232   -11.2102 H       1      m1     0.0193
    188 C           -6.6867    -0.4102   -12.0237 C       1      m1    -0.0230
    189 C           -5.4464    -1.2742   -12.1866 C       1      m1    -0.0132
    190 H           -5.4004     1.7808   -12.4676 H       1      m1     0.0138
    191 C           -5.1712    -1.4779   -13.7225 C       1      m1     0.0042
    192 H           -4.7722    -0.4734   -11.8104 H       1      m1     0.0132
    193 C           -4.1973     0.6231    14.3681 C       1      m1    -0.0112
    194 H           -3.4056     0.0386   -12.3043 H       1      m1     0.0151
    195 H           -3.0502     1.5638   -11.5968 H       1      m1     0.0188
    196 C           -2.4839    -0.3631   -11.6894 C       1      m1    -0.0208
    197 C           -2.3313    -1.4752   -11.3152 C       1      m1     0.0004
    198 C           -2.2248     1.9161   -12.1964 C       1      m1    -0.0410
    199 C           -1.3209     0.6664   -11.6265 C       1      m1     0.0026
    200 C           -0.4467     0.9712   -10.8299 C       1      m1    -0.0064
    201 C            2.1501     0.7719   -14.2556 C       1      m1    -0.0021
    202 C            2.3895    -1.3828   -12.1890 C       1      m1    -0.0069
    203 C            2.7316    -0.1257   -12.5480 C       1      m1    -0.0003
    204 C            3.1044     0.9040   -11.3920 C       1      m1    -0.0263
    205 C            3.3368    -0.4148   -14.0454 C       1      m1    -0.0237
    206 H            4.1733     1.0302   -11.6649 H       1      m1     0.0239
    207 C            5.8750     0.4189   -10.7160 C       1      m1     0.0014
    208 C            6.5070     1.3038   -11.4559 C       1      m1    -0.0390
    209 H            6.9714     0.8285   -12.3686 H       1      m1     0.0261
    210 H            8.3757     0.9501   -10.2751 H       1      m1     0.0237
    211 C            8.6458    -1.2350   -11.8277 C       1      m1     0.0047
    212 C            8.6265    -1.1865   -10.5445 C       1      m1    -0.0026
    213 C            8.6953    -1.0093   -13.0582 C       1      m1     0.0263
    214 C            8.9282    -0.2982   -14.1153 C       1      m1    -0.0103
    215 H           10.5590    -2.4232   -12.4988 H       1      m1     0.0392
    216 H           13.5233     0.1403   -11.1307 H       1      m1     0.0125
    217 C           13.8967     2.1431   -12.0813 C       1      m1    -0.0028
    218 C           13.9058     1.0031   -10.9358 C       1      m1    -0.0164
    219 H           14.8830    -1.7449   -13.6422 H       1      m1     0.0148
    220 C           15.0765     0.4270   -10.2507 C       1      m1    -0.0253
    221 C           15.5154    -0.9145   -10.2497 C       1      m1     0.1345
    222 C           16.0312    -1.2361   -13.5287 C       1      m1    -0.0317
    223 C          -14.2844     3.0444   -10.6278 C       1      m1     0.0153
    224 C          -13.4442     4.1786   -10.7423 C       1      m1     0.0180
    225 C          -13.2486     4.2152   -12.0758 C       1      m1     0.0107
    226 C          -12.9590     2.9004   -14.1736 C       1      m1    -0.0020
    227 C          -12.8567     4.2975   -13.2674 C       1      m1    -0.0016
    228 C          -11.6808     4.9655   -14.0809 C       1      m1     0.0063
    229 O          -10.6468     2.6960   -10.7593 O       1      m1    -0.5925
    230 H          -10.3828     2.5047   -11.6619 H       1      m1     0.2681
    231 H           -9.1519     6.4134   -12.2392 H       1      m1     0.0234
    232 C           -8.5606     2.2129   -14.0225 C       1      m1    -0.0039
    233 C           -7.8840     5.9093   -14.3746 C       1      m1     0.2119
    234 C           -7.9150     4.8274   -10.5507 C       1      m1     0.0189
    235 C           -7.4495     2.7057   -13.6614 C       1      m1    -0.0027
    236 C           -7.0100     5.0770   -11.6305 C       1      m1    -0.0455
    237 C           -6.5865     2.8582   -11.1936 C       1      m1    -0.0031
    238 C           -6.3841     2.4435   -12.4105 C       1      m1    -0.0217
    239 O           -6.3189     5.9931   -13.9598 O       1      m1    -0.4919
    240 C           -5.9506     5.6382   -12.4223 C       1      m1     0.2080
    241 C           -4.8797     6.1862   -11.6910 C       1      m1    -0.0806
    242 C           -4.7066     6.2214   -10.3080 C       1      m1     0.0382
    243 H           -4.5954     4.1714   -13.0274 H       1      m1     0.0239
    244 H           -4.1506     6.5383   -12.2185 H       1      m1     0.0564
    245 C           -3.8780     4.1501   -13.8054 C       1      m1    -0.0010
    246 C           -3.0410     6.1817   -14.4131 C       1      m1     0.0052
    247 C           -2.7501     4.9439   -14.2306 C       1      m1    -0.0100
    248 H           -2.2972     1.5023   -13.2328 H       1      m1     0.0217
    249 C           -1.7650     3.2205   -11.6058 C       1      m1     0.0066
    250 C           -1.0399     4.2291   -12.4849 C       1      m1     0.0469
    251 C           -0.3074     4.9340   -13.2623 C       1      m1     0.0316
    252 C            0.2464     5.5918   -14.4096 C       1      m1    -0.0225
    253 C            1.4746     2.5976   -10.2032 C       1      m1    -0.0012
    254 C            2.7081     2.3222   -11.3165 C       1      m1     0.0001
    255 C            2.5972     4.7566   -11.5177 C       1      m1     0.0198
    256 C            2.5781     2.1759   -14.3000 C       1      m1    -0.0021
    257 C            3.0620     3.4701   -12.0336 C       1      m1    -0.0045
    258 C            3.2780     5.7517   -12.3605 C       1      m1    -0.0167
    259 C            3.5940     2.9516   -13.3283 C       1      m1    -0.0034
    260 C            4.6948     5.6273   -12.0367 C       1      m1     0.0061
    261 C            4.9185     2.6865   -13.4736 C       1      m1    -0.0058
    262 C            5.9682     5.4300   -11.5345 C       1      m1    -0.0224
    263 H            6.7489     4.6499   -11.4194 H       1      m1     0.0203
    264 C            6.0710     2.2390   -13.9685 C       1      m1    -0.0249
    265 H            5.9092     2.3085   -11.3680 H       1      m1     0.0204
    266 H            6.9456     2.8089   -14.1478 H       1      m1     0.0140
    267 H            7.6700     5.2698   -13.0295 H       1      m1     0.0157
    268 H            8.0767     3.2987   -12.3075 H       1      m1     0.0162
    269 C            8.7480     5.2882   -12.6544 C       1      m1    -0.0138
    270 C            8.9943     3.8690   -12.1252 C       1      m1    -0.0338
    271 C            9.1536     4.0878   -10.4600 C       1      m1     0.0074
    272 C            9.6881     5.6568   -13.3451 C       1      m1     0.0028
    273 H            9.8483     3.4259   -12.6450 H       1      m1     0.0242
    274 C           10.7215     6.1661   -14.1426 C       1      m1    -0.0195
    275 C           12.0146     2.8121   -13.7509 C       1      m1    -0.0043
    276 C           12.1127     5.6480   -14.1789 C       1      m1     0.0005
    277 C           12.0617     4.2438   -13.5924 C       1      m1     0.0020
    278 C           13.5750     2.8540   -13.0288 C       1      m1    -0.0028
    279 C           14.1832     4.4552   -10.6743 C       1      m1    -0.0022
    280 C           14.3956     4.2257   -13.2659 C       1      m1     0.0008
    281 C           14.4575     5.0955   -11.9766 C       1      m1    -0.0029
    282 C           15.2363     4.2099   -14.4084 C       1      m1    -0.0038
    283 C          -14.9524     8.6468   -12.9399 C       1      m1     0.0001
    284 C          -13.8417     7.7569   -12.6644 C       1      m1    -0.0247
    285 C          -13.7023     7.7778   -11.3663 C       1      m1     0.0065
    286 H          -13.2970     7.1159   -13.4403 H       1      m1     0.0183
    287 H          -11.2913     7.8179   -12.1973 H       1      m1     0.0187
    288 C          -10.8650     7.3533   -11.4339 C       1      m1    -0.0130
    289 C           -9.8878     6.2637   -11.3902 C       1      m1    -0.0008
    290 C           -9.8475     9.9966   -10.7839 C       1      m1    -0.0043
    291 C           -8.9003     7.0038   -14.0647 C       1      m1    -0.0685
    292 C           -8.7690     8.9799   -10.9180 C       1      m1     0.0095
    293 C           -8.5860     7.9727   -13.2737 C       1      m1     0.0244
    294 C           -8.1283     8.9464   -12.2664 C       1      m1    -0.0076
    295 C           -7.5163    10.2778   -12.2954 C       1      m1     0.0028
    296 H           -5.2254     9.8268   -11.1724 H       1      m1     0.0399
    297 H           -4.5807     9.5197   -13.5075 H       1      m1     0.0251
    298 C           -3.5678     9.5117   -13.8217 C       1      m1    -0.0177
    299 C           -2.6968     8.2591   -13.9304 C       1      m1     0.0064
    300 H           -2.9500     6.6706   -10.4508 H       1      m1     0.0725
    301 C           -0.7181     8.2267   -13.9384 C       1      m1    -0.0131
    302 O           -0.6444     6.4254   -11.1439 O       1      m1    -0.7515
    303 H           -0.0378     8.0202   -12.9996 H       1      m1     0.0073
    304 H           -0.4173     6.9973   -11.6125 H       1      m1     0.3741
    305 C            0.0537    10.0476   -10.6450 C       1      m1    -0.0091
    306 C            0.3442     8.6288   -10.4823 C       1      m1     0.0095
    307 C            2.2190     9.7849   -10.6915 C       1      m1    -0.0001
    308 C            2.9451     9.3432   -13.6175 C       1      m1    -0.0200
    309 H            2.8338     6.2898   -13.2094 H       1      m1     0.0244
    310 C            3.6780     9.7393   -11.1268 C       1      m1     0.0063
    311 C            3.9778     9.1730   -12.5267 C       1      m1     0.0027
    312 C            5.2993     8.7237   -12.3742 C       1      m1    -0.0018
    313 C            5.4920     8.2685   -11.2170 C       1      m1    -0.0040
    314 C            6.3881     8.9171   -13.6671 C       1      m1    -0.0177
    315 C            6.4635     7.7124   -10.7190 C       1      m1    -0.0014
    316 C            6.8591     6.4182   -10.7819 C       1      m1    -0.0020
    317 H            7.0342     9.4356   -12.8887 H       1      m1     0.0197
    318 H            7.7893     9.4545   -11.1100 H       1      m1     0.0226
    319 C            8.9795     8.2259   -10.2715 C       1      m1     0.0056
    320 C            9.9058     8.9642   -11.3842 C       1      m1    -0.0071
    321 C           10.7332     8.1451   -11.4746 C       1      m1     0.0025
    322 H           10.7470     7.2142   -13.9647 H       1      m1     0.0160
    323 C           11.2855     6.4110   -10.5802 C       1      m1     0.0062
    324 C           11.4733     7.1433   -11.8139 C       1      m1    -0.0193
    325 H           11.9697     7.0057   -12.7951 H       1      m1     0.0242
    326 H           13.5372     9.0908   -13.9527 H       1      m1     0.0202
    327 C           13.6999     8.6515   -13.0871 C       1      m1    -0.0237
    328 C           13.3606     6.1655   -14.0411 C       1      m1    -0.0044
    329 C           13.8312     7.2335   -12.8778 C       1      m1    -0.0016
    330 C           14.7285     9.2976   -12.1030 C       1      m1     0.0031
    331 C           14.4752     6.5939   -11.8741 C       1      m1    -0.0028
    332 C           15.5011     7.4672   -11.2028 C       1      m1    -0.0005
    333 C          -16.0247     8.4389   -12.0490 C       1      m1    -0.0037
    334 C          -15.2377    13.9851   -10.5901 C       1      m1    -0.0014
    335 H          -15.2286    12.3028   -11.5915 H       1      m1     0.0218
    336 C          -14.6235    13.2371   -11.5416 C       1      m1    -0.0207
    337 C          -14.1173    12.9983   -13.8752 C       1      m1     0.0051
    338 C          -13.6396    13.3772   -12.7691 C       1      m1    -0.0016
    339 H          -12.5603    11.8597   -10.1207 H       1      m1     0.0168
    340 H          -11.3429    11.1449   -13.1610 H       1      m1     0.0224
    341 C          -11.0792    14.3509   -12.2655 C       1      m1    -0.0016
    342 C          -10.4593    10.7355   -13.1545 C       1      m1    -0.0310
    343 C          -10.4020    13.8409   -13.4810 C       1      m1     0.0021
    344 C           -9.8120    10.6856   -11.8573 C       1      m1     0.0006
    345 C           -8.8437   -14.5363   -13.6979 C       1      m1    -0.0179
    346 C           -7.4477    13.6204   -11.4825 C       1      m1    -0.0078
    347 C           -6.9807    12.5581   -11.5019 C       1      m1     0.0026
    348 C           -6.4720    11.2426   -11.6192 C       1      m1    -0.0096
    349 C           -5.6439    10.6355   -10.7041 C       1      m1     0.0133
    350 C           -4.6321    14.0135   -13.9084 C       1      m1    -0.0051
    351 H           -1.3794    12.3831   -13.4767 H       1      m1     0.0176
    352 H           -0.6022    10.2846   -11.6136 H       1      m1     0.0157
    353 C           -0.5530    11.8718   -13.9638 C       1      m1    -0.0395
    354 H           -0.4047    10.8566   -13.3840 H       1      m1     0.0173
    355 C            0.9159    12.3859   -14.3386 C       1      m1     0.0010
    356 C            1.0643    13.7900    14.3962 C       1      m1    -0.0049
    357 C            1.1853    10.8999   -10.3792 C       1      m1    -0.0259
    358 H            1.2726    11.9259   -10.1980 H       1      m1     0.0160
    359 H            2.5474    13.0164   -11.6029 H       1      m1     0.0059
    360 C            2.0556    11.7286   -13.4897 C       1      m1    -0.0006
    361 C            2.2236    10.3347   -14.2615 C       1      m1     0.0010
    362 C            2.6552    12.1991   -12.4356 C       1      m1    -0.0165
    363 H            3.6397    13.5235   -10.5887 H       1      m1     0.0114
    364 C            4.0863    12.3432   -11.9773 C       1      m1    -0.0112
    365 C            4.0111    11.2387   -10.8669 C       1      m1    -0.0544
    366 C            4.4283    13.8172   -11.3198 C       1      m1     0.1871
    367 H            4.6474    11.9191   -12.6850 H       1      m1     0.0345
    368 O            5.5441    13.1952   -10.4075 O       1      m1    -0.4770
    369 C            6.5957    13.8830   -13.3288 C       1      m1     0.0178
    370 C            7.9229    14.3098   -12.7657 C       1      m1     0.0143
    371 H            7.8889    12.6880   -11.5556 H       1      m1     0.0563
    372 C            8.6268    13.2783   -12.0474 C       1      m1    -0.0224
    373 H            9.1150    10.9261   -12.0154 H       1      m1     0.0206
    374 C            9.8031    13.8142   -11.4761 C       1      m1     0.0108
    375 C            9.8722    10.6237   -11.4555 C       1      m1    -0.0174
    376 C           10.6682    14.4354   -12.1577 C       1      m1    -0.0010
    377 H           10.8482    10.9553   -14.0331 H       1      m1     0.0142
    378 C           11.2150    11.1947   -12.0281 C       1      m1     0.0042
    379 C           11.5964    11.5721   -13.4192 C       1      m1    -0.0229
    380 C           11.9016    14.3336   -10.2806 C       1      m1     0.0016
    381 C           12.0666    14.2327   -11.7838 C       1      m1    -0.0038
    382 C           12.3529    11.1848   -11.1783 C       1      m1    -0.0005
    383 C           12.6820    12.5172   -13.4256 C       1      m1     0.0020
    384 C           13.0913    13.4018   -12.3521 C       1      m1     0.0018
    385 C           14.0047    11.4685   -11.2845 C       1      m1    -0.0027
    386 C           14.1939    14.1345   -10.4365 C       1      m1    -0.0011
    387 C           14.1165    13.0611   -11.3313 C       1      m1    -0.0008
    388 C           14.8257    10.6224   -11.6981 C       1      m1    -0.0064
    389 C          -15.6836   -14.0475    -9.9092 C       1      m1    -0.0062
    390 C          -15.4847   -11.4647    -9.2953 C       1      m1    -0.0018
    391 C          -14.8748   -12.7757    -9.6837 C       1      m1     0.0021
    392 H          -14.1009   -13.9124    -7.3854 H       1      m1     0.0206
    393 C          -14.5220   -10.8152    -8.7814 C       1      m1     0.0010
    394 C          -14.2093   -10.5630    -7.3577 C       1      m1    -0.0171
    395 H          -13.8609   -11.3794    -6.7074 H       1      m1     0.0237
    396 C          -13.6845   -12.8873   -10.1893 C       1      m1    -0.0146
    397 H          -13.2080   -13.8512   -10.3008 H       1      m1     0.0187
    398 C          -13.2151   -10.8027    -9.3696 C       1      m1     0.0062
    399 H          -11.6337   -14.3255    -9.5324 H       1      m1     0.0167
    400 C          -10.2083   -11.3056    -6.2739 C       1      m1     0.0057
    401 H          -10.0534   -11.1088    -9.7060 H       1      m1     0.0214
    402 C           -9.6699   -13.5520    -6.1184 C       1      m1    -0.0185
    403 C           -9.2907   -12.2265    -6.7565 C       1      m1    -0.0174
    404 H           -9.0752   -14.4991    -6.0135 H       1      m1     0.0161
    405 C           -8.5425   -13.8603    -9.8542 C       1      m1    -0.0164
    406 C           -8.2985   -12.5234    -9.4063 C       1      m1    -0.0037
    407 H           -8.2557   -12.1304    -7.3026 H       1      m1     0.0185
    408 C           -7.7916   -11.4347    -8.8900 C       1      m1    -0.0108
    409 C           -6.2324   -11.7780    -8.9970 C       1      m1    -0.0078
    410 C           -5.6056   -10.8044    -9.7713 C       1      m1     0.0108
    411 C           -4.8804   -12.4521    -8.5013 C       1      m1     0.0089
    412 C           -4.7295   -13.4290    -7.4066 C       1      m1     0.0098
    413 C           -3.6804   -11.6851    -8.6179 C       1      m1    -0.0217
    414 C           -2.6491   -11.0800    -8.6027 C       1      m1     0.1493
    415 H           -1.4855   -12.7456   -10.0261 H       1      m1     0.0399
    416 O           -1.3738   -11.4165    -7.7271 O       1      m1    -0.4619
    417 C            1.0558   -11.1829    -6.5771 C       1      m1     0.0286
    418 C            1.4677   -13.1271    -7.9091 C       1      m1     0.0190
    419 C            1.8425   -11.7793    -7.3788 C       1      m1     0.0058
    420 C            2.0728   -12.7694    -9.2159 C       1      m1    -0.0008
    421 C            2.0790   -13.7582    -6.7140 C       1      m1    -0.0054
    422 C            2.7983   -12.5204    -6.3063 C       1      m1    -0.0056
    423 C            3.2792   -13.1186   -10.0011 C       1      m1    -0.0213
    424 H            3.7530   -14.1312    -9.5028 H       1      m1     0.0318
    425 C            7.2924   -11.5404    -8.2895 C       1      m1     0.0092
    426 H            7.9604   -13.7813    -8.0369 H       1      m1     0.0305
    427 C            8.0355   -12.7450    -8.3225 C       1      m1    -0.0202
    428 C            8.9419   -11.1355   -10.1365 C       1      m1    -0.0035
    429 C            8.8677   -12.5144    -9.5159 C       1      m1     0.0072
    430 C           10.5011   -13.8069    -6.5644 C       1      m1    -0.0133
    431 C           10.2147   -12.9589    -9.3049 C       1      m1    -0.0020
    432 C           10.6346   -12.1768    -6.8592 C       1      m1    -0.0058
    433 C           10.5583   -14.2641    -9.7531 C       1      m1    -0.0053
    434 C           10.9661   -11.9963    -8.1153 C       1      m1    -0.0047
    435 C           10.9513   -10.7194    -8.7262 C       1      m1     0.0049
    436 H           12.6934   -13.1305    -6.1842 H       1      m1     0.0202
    437 H           12.8442   -12.9339   -10.9795 H       1      m1     0.0228
    438 H           13.0033   -10.7762    -7.0283 H       1      m1     0.0207
    439 C           14.0889   -10.8050    -6.8824 C       1      m1    -0.0209
    440 C           14.3691   -11.1833   -10.5195 C       1      m1     0.0004
    441 C           14.7518   -10.8041    -8.0779 C       1      m1    -0.0034
    442 C           15.0240   -13.7179   -10.1680 C       1      m1     0.0024
    443 C           15.1622   -10.7797    -9.1964 C       1      m1    -0.0035
    444 H          -14.3922    -8.2276    -7.5390 H       1      m1     0.0158
    445 C          -13.7594    -9.2002    -7.4103 C       1      m1    -0.0065
    446 C          -12.7519    -8.5957    -8.2677 C       1      m1    -0.0155
    447 C          -12.4263    -9.4691    -9.3662 C       1      m1    -0.0009
    448 H          -12.3990    -7.5459    -8.4806 H       1      m1     0.0219
    449 C          -11.0147    -9.4467    -9.3454 C       1      m1    -0.0015
    450 C          -10.7453    -6.8732    -6.2336 C       1      m1     0.0017
    451 C           -9.9444    -9.7606    -6.3869 C       1      m1    -0.0013
    452 C           -9.8425   -10.1156    -9.3417 C       1      m1    -0.0241
    453 C           -9.7198    -7.3226    -7.1200 C       1      m1     0.0012
    454 C           -9.2091    -8.6164    -6.9919 C       1      m1     0.0030
    455 C           -8.9080    -6.4377    -8.1922 C       1      m1    -0.0185
    456 C           -8.5229   -10.1937    -8.4807 C       1      m1     0.0003
    457 C           -7.8689    -9.4007    -7.4827 C       1      m1    -0.0249
    458 H           -7.8568    -6.8618    -7.9595 H       1      m1     0.0237
    459 H           -6.8299    -9.2728    -7.1143 H       1      m1     0.0189
    460 C           -6.0418    -6.6406    -9.5756 C       1      m1    -0.0017
    461 C           -5.5623    -7.9052   -10.1167 C       1      m1    -0.0265
    462 C           -4.9953    -6.2965    -8.6505 C       1      m1     0.0013
    463 H           -5.1940    -8.1442    -7.2588 H       1      m1     0.0208
    464 C           -4.7225    -7.2524    -7.7160 C       1      m1    -0.0252
    465 H           -4.6353    -8.2318   -10.4554 H       1      m1     0.0542
    466 C           -4.1973    -6.7362    -6.5626 C       1      m1     0.0109
    467 H           -3.7671   -10.0915    -6.5762 H       1      m1     0.0371
    468 H           -2.0534    -8.2022    -9.4327 H       1      m1     0.0487
    469 C           -1.4444   -10.1644    -8.5148 C       1      m1     0.1969
    470 C           -1.3116    -8.8705    -9.0351 C       1      m1    -0.0757
    471 C           -0.6624    -6.6801    -8.6535 C       1      m1    -0.0059
    472 C           -0.0891    -7.9457    -8.6488 C       1      m1    -0.0030
    473 H            0.9478    -8.3988    -8.6272 H       1      m1     0.0246
    474 H            2.0828    -6.3890    -8.2620 H       1      m1     0.0220
    475 C            4.9204   -10.0029    -6.7967 C       1      m1    -0.0042
    476 C            5.1336    -6.8594    -8.0461 C       1      m1    -0.0143
    477 C            5.6885    -9.6336    -8.1196 C       1      m1    -0.0034
    478 C            5.3138    -7.4061    -6.5993 C       1      m1    -0.0141
    479 H            6.0368    -8.3638    -6.9109 H       1      m1     0.0204
    480 C            5.8364    -7.9853    -8.6233 C       1      m1    -0.0042
    481 C            6.0504    -7.9901   -10.0973 C       1      m1     0.0111
    482 C            7.0380   -10.4629    -7.8751 C       1      m1    -0.0230
    483 H            7.9062    -9.9225    -7.1845 H       1      m1     0.0159
    484 C           10.5893    -9.9900    -6.4352 C       1      m1     0.0044
    485 O           10.5046    -7.8914   -10.3272 O       1      m1    -0.4716
    486 H           10.0822    -8.8220    -8.1244 H       1      m1     0.0488
    487 C           10.6888    -9.6296    -7.7975 C       1      m1    -0.0406
    488 C           11.2074   -10.3429   -10.1743 C       1      m1    -0.0537
    489 C           11.3343    -8.8132   -10.0000 C       1      m1     0.3125
    490 H           13.1529    -9.2914    -8.4282 H       1      m1     0.0243
    491 C           12.8969    -9.0628    -9.6260 C       1      m1    -0.0695
    492 H           12.6706    -7.0923    -6.5608 H       1      m1     0.0217
    493 C           13.9632    -7.8185    -9.7776 C       1      m1     0.0151
    494 C           15.3969    -7.8388    -9.3942 C       1      m1    -0.0322
    495 H           15.6294    -8.4419    -8.6331 H       1      m1     0.0218
    496 H           15.5784    -3.9901    -9.5928 H       1      m1     0.0087
    497 C          -15.7831    -4.1688    -6.4569 C       1      m1    -0.0001
    498 C          -15.7756    -3.2325    -9.8226 C       1      m1     0.0000
    499 C          -14.9327    -4.3470    -7.2786 C       1      m1    -0.0074
    500 C          -15.0437    -2.9778    -8.2740 C       1      m1    -0.0048
    501 C          -13.7967    -5.1965    -7.5050 C       1      m1    -0.0048
    502 C          -13.6562    -2.3652    -8.2950 C       1      m1     0.0283
    503 C          -13.0464    -5.9222    -6.3510 C       1      m1    -0.0026
    504 C          -13.0742    -4.8785    -8.7567 C       1      m1     0.0005
    505 C          -12.7407    -3.3891    -8.5381 C       1      m1    -0.0225
    506 C          -12.6463    -5.8324    -9.7376 C       1      m1    -0.0067
    507 H          -11.8662    -2.6545    -8.3277 H       1      m1     0.0208
    508 C          -11.6535    -5.6430    -6.2358 C       1      m1    -0.0049
    509 C          -11.3490    -4.3652    -6.5594 C       1      m1    -0.0010
    510 C          -10.9030    -5.6080    -9.6566 C       1      m1    -0.0026
    511 C          -10.7933    -3.2357    -6.7881 C       1      m1    -0.0249
    512 C           -9.7107    -5.9456    -9.0685 C       1      m1    -0.0012
    513 C           -9.7139    -2.1439    -9.1527 C       1      m1    -0.0015
    514 C           -9.3548    -3.5274    -7.0423 C       1      m1     0.0035
    515 C           -9.1340    -2.6953    -8.1250 C       1      m1    -0.0008
    516 C           -7.2674    -2.7444    -6.7161 C       1      m1    -0.0045
    517 H           -6.7044    -3.4702    -7.3034 H       1      m1     0.0313
    518 C           -6.1624    -4.3768    -9.9107 C       1      m1     0.0017
    519 C           -5.3155    -3.9521    -8.8481 C       1      m1    -0.0232
    520 H           -5.3839    -2.9550    -8.4581 H       1      m1     0.0183
    521 C           -4.6952    -4.9722    -8.1656 C       1      m1     0.0046
    522 C           -3.8778    -4.2800    -7.0928 C       1      m1     0.0096
    523 C           -3.5558    -5.4196    -6.2532 C       1      m1    -0.0105
    524 C           -3.0844    -3.1487    -7.3465 C       1      m1    -0.0039
    525 H           -2.7597    -5.0493   -11.1344 H       1      m1     0.0660
    526 C           -1.8769    -3.3468    -7.9337 C       1      m1    -0.0097
    527 C           -1.5075    -4.2760    -8.9494 C       1      m1    -0.0211
    528 C           -0.8774    -5.4455    -8.6456 C       1      m1    -0.0103
    529 C           -0.9691    -2.1658    -7.2573 C       1      m1    -0.0429
    530 H           -0.7079    -3.6734    -9.4364 H       1      m1     0.0184
    531 H           -0.6450    -4.8152    -6.3570 H       1      m1     0.0184
    532 H            1.5915    -3.4290    -7.7866 H       1      m1     0.0185
    533 C            2.5316    -5.6315    -7.6536 C       1      m1    -0.0221
    534 C            2.4931    -4.0808    -7.8038 C       1      m1    -0.0128
    535 C            2.7389    -5.9714    -6.2906 C       1      m1     0.0052
    536 C            3.5938    -3.4786    -8.2943 C       1      m1    -0.0016
    537 H            5.5921    -5.8484    -8.4447 H       1      m1     0.0214
    538 C            4.8850    -2.6091    -8.4396 C       1      m1    -0.0047
    539 C            6.6718    -5.4421   -10.2764 C       1      m1     0.0039
    540 C            7.2714    -4.8153    -9.3351 C       1      m1     0.0069
    541 C            7.7456    -4.1303    -8.3955 C       1      m1    -0.0007
    542 C            8.3516    -3.6491    -7.1670 C       1      m1    -0.0064
    543 H            8.8115    -5.6006    -7.3627 H       1      m1     0.0379
    544 C            9.1969    -4.9334    -6.8403 C       1      m1    -0.0412
    545 H            9.8951    -4.3655    -7.5039 H       1      m1     0.0313
    546 C           11.2787    -3.9072    -9.6762 C       1      m1     0.0139
    547 C           11.5664    -2.9998    -8.5969 C       1      m1    -0.0072
    548 C           12.5586    -3.5831    -7.6484 C       1      m1     0.0028
    549 C           12.6713    -4.5557    -9.7504 C       1      m1     0.0098
    550 C           13.2983    -2.5221    -6.8657 C       1      m1     0.0009
    551 C           13.4876    -4.4717    -8.4283 C       1      m1    -0.0341
    552 H           13.6743    -5.4672    -8.1068 H       1      m1     0.0250
    553 H           14.6803    -3.8755    -8.4259 H       1      m1     0.0153
    554 C           15.1713    -2.3251   -10.2261 C       1      m1    -0.0346
    555 H          -15.8476    -2.0901    -7.9293 H       1      m1     0.0355
    556 O          -14.7701    -0.8729   -10.3592 O       1      m1    -0.4730
    557 C          -14.8853     0.6609   -10.2459 C       1      m1     0.2285
    558 H          -14.0275    -0.2307    -6.7220 H       1      m1     0.0461
    559 H          -12.6536     0.6246    -6.1872 H       1      m1     0.0197
    560 H          -13.2929    -1.4298    -7.7407 H       1      m1     0.0206
    561 H          -11.4538    -2.1396    -6.8687 H       1      m1     0.0108
    562 C          -10.2517    -0.0920   -10.1216 C       1      m1    -0.0455
    563 C          -10.0076     1.4207    -9.9068 C       1      m1     0.2151
    564 C           -9.8195    -0.7552    -9.1470 C       1      m1     0.0077
    565 C           -8.9284     1.4206    -9.3251 C       1      m1    -0.0633
    566 C           -8.6250     0.0422    -8.8859 C       1      m1     0.0052
    567 C           -7.9725    -2.0823    -8.0398 C       1      m1    -0.0108
    568 C           -7.4813    -0.8120    -8.5800 C       1      m1    -0.0228
    569 H           -6.7986     0.6909    -6.1650 H       1      m1     0.0219
    570 H           -6.7359    -1.9978    -6.0240 H       1      m1     0.0484
    571 H           -6.5356    -0.7476    -7.9833 H       1      m1     0.0156
    572 C           -4.2838     0.3469    -7.6264 C       1      m1    -0.0114
    573 H           -4.9075    -1.1609    -8.8475 H       1      m1     0.0151
    574 C           -4.3952    -1.0314    -7.9707 C       1      m1    -0.0265
    575 C           -3.9867     1.6730    -7.0569 C       1      m1    -0.0100
    576 C           -3.3368    -1.5766    -7.0656 C       1      m1     0.0029
    577 C           -2.6232     1.8858    -6.6618 C       1      m1     0.0166
    578 H           -1.9933     1.0133    -6.2737 H       1      m1     0.0255
    579 H           -1.5232    -1.1500    -8.8561 H       1      m1     0.0150
    580 C           -0.8765    -1.1492    -7.9741 C       1      m1     0.0070
    581 C            0.0538    -0.0688    -8.1687 C       1      m1    -0.0017
    582 C            0.5659     1.4258    -9.9142 C       1      m1    -0.0020
    583 C            0.8379     0.8391    -8.3321 C       1      m1    -0.0043
    584 H            1.2173    -0.1125    -6.4170 H       1      m1     0.0864
    585 C            2.1960     0.1389    -6.6475 C       1      m1    -0.0209
    586 C            2.2433     0.6786    -7.8391 C       1      m1     0.0035
    587 H            2.8435     1.1127    -9.6738 H       1      m1     0.0246
    588 C            3.3659     1.0979    -8.5979 C       1      m1    -0.0208
    589 C            4.5556     0.3791    -8.3904 C       1      m1     0.0035
    590 C            5.0168    -1.9038    -9.8417 C       1      m1     0.0003
    591 C            5.0896    -0.2531    -9.8213 C       1      m1    -0.0080
    592 C            5.3998     0.5525    -7.2329 C       1      m1    -0.0026
    593 C            5.5972     1.8210    -6.4140 C       1      m1     0.0059
    594 C            5.4582    -1.8062    -7.6438 C       1      m1    -0.0021
    595 C            6.0121    -0.8104    -7.0091 C       1      m1    -0.0058
    596 C            7.6500    -1.1328    -6.6174 C       1      m1    -0.0377
    597 H            7.9830    -0.0761    -6.7870 H       1      m1     0.0233
    598 C            8.5229    -2.1475    -7.4122 C       1      m1    -0.0002
    599 C            8.7241     1.6991    -9.6068 C       1      m1    -0.0170
    600 C            8.9695    -0.6312    -9.3157 C       1      m1    -0.0043
    601 C            9.4779    -1.6225    -8.3027 C       1      m1    -0.0033
    602 C            9.6029     0.6031    -8.9355 C       1      m1    -0.0068
    603 C           10.9109    -1.7575    -8.3263 C       1      m1    -0.0028
    604 C           11.0540     0.5642    -9.1337 C       1      m1    -0.0059
    605 C           11.7198    -0.7174    -8.5949 C       1      m1    -0.0058
    606 C           11.6572     1.6073    -9.8715 C       1      m1    -0.0061
    607 C           12.7846    -0.5900    -7.6445 C       1      m1    -0.0009
    608 C           12.9399     0.2372    -6.6928 C       1      m1     0.0162
    609 C           13.2002     1.8894    -9.9990 C       1      m1     0.0037
    610 C           13.3944     1.4027    -7.3149 C       1      m1     0.0146
    611 C           13.6908    -1.4333    -7.5065 C       1      m1    -0.0198
    612 C           13.8287     1.5736    -8.6508 C       1      m1     0.0020
    613 H           14.5479    -1.0933    -6.8070 H       1      m1     0.0489
    614 C          -16.0123     1.2393    -9.6294 C       1      m1    -0.0348
    615 C          -15.6138     3.4343   -10.2282 C       1      m1    -0.0129
    616 H          -13.3692     5.3470    -7.1848 H       1      m1     0.0385
    617 H          -13.4826     5.2847   -10.3521 H       1      m1     0.0213
    618 C          -12.5015     5.1835    -6.4980 C       1      m1    -0.0327
    619 H          -11.2846     2.9324    -7.3090 H       1      m1     0.0258
    620 C          -11.5209     4.1381    -7.1237 C       1      m1    -0.0130
    621 C          -10.7553     4.7017    -8.2830 C       1      m1     0.0115
    622 C          -10.0785     5.0656    -9.3756 C       1      m1     0.0487
    623 C           -9.1905     5.5757   -10.2968 C       1      m1    -0.0042
    624 H           -8.2222     2.0902    -5.8157 H       1      m1     0.0192
    625 C           -8.0191     2.6894    -8.9895 C       1      m1     0.0297
    626 C           -7.7119     2.6857    -6.5482 C       1      m1    -0.0180
    627 C           -7.7084     6.3425    -7.9230 C       1      m1     0.0052
    628 C           -7.3435     3.5005   -10.1246 C       1      m1    -0.0040
    629 C           -7.1033     2.7280    -7.8491 C       1      m1    -0.0306
    630 C           -6.4641     5.8279    -8.5474 C       1      m1    -0.0001
    631 H           -6.0326     2.9349    -7.9795 H       1      m1     0.0187
    632 H           -5.6822     4.8916    -8.0787 H       1      m1     0.0499
    633 H           -4.9441     2.3953    -7.0193 H       1      m1     0.0270
    634 O           -3.2449     4.8527    -7.0410 O       1      m1    -0.5244
    635 H           -3.0740     3.7646    -9.9541 H       1      m1     0.0397
    636 H           -1.4135     4.5932    -9.7688 H       1      m1     0.0678
    637 C           -1.8767     3.6058   -10.0356 C       1      m1    -0.0418
    638 H           -1.1072     2.8638    -9.5598 H       1      m1     0.0269
    639 H           -1.1125     4.9840    -8.3122 H       1      m1     0.0576
    640 C           -0.7331     6.0271    -8.4078 C       1      m1    -0.0799
    641 C            1.3035     3.9625    -7.8681 C       1      m1    -0.0058
    642 C            1.3055     4.3284    -6.5882 C       1      m1     0.0092
    643 C            1.5860     3.7370    -9.3634 C       1      m1     0.0038
    644 C            2.4643     4.7658   -10.0391 C       1      m1     0.0066
    645 C            3.6027     4.7493    -9.2589 C       1      m1    -0.0130
    646 H            3.7248     2.7141    -7.1113 H       1      m1     0.0262
    647 C            4.4988     2.8113    -6.3327 C       1      m1    -0.0167
    648 C            4.7698     4.4876    -8.4122 C       1      m1    -0.0062
    649 C            6.1093     4.3386    -8.0638 C       1      m1    -0.0075
    650 C            6.5913     4.7483    -6.7801 C       1      m1    -0.0057
    651 C            6.9343     3.6042    -9.1023 C       1      m1    -0.0028
    652 C            7.3366     2.3165    -8.9478 C       1      m1    -0.0019
    653 H            7.6286     4.4923    -7.0214 H       1      m1     0.0343
    654 C            7.8645     5.8333    -9.8977 C       1      m1    -0.0035
    655 C            7.9974     4.4877    -9.7868 C       1      m1    -0.0048
    656 C            9.6810     2.7629   -10.1272 C       1      m1    -0.0035
    657 H           10.2767     4.5784    -7.9272 H       1      m1     0.0226
    658 C           10.9479     5.6495    -8.0082 C       1      m1    -0.0078
    659 C           11.0724     2.9265   -10.0412 C       1      m1    -0.0031
    660 C           11.5548     5.4167    -9.5094 C       1      m1    -0.0036
    661 C           11.9869     4.0766    -9.9044 C       1      m1    -0.0033
    662 C           12.3047     6.1558    -7.4934 C       1      m1    -0.0105
    663 C           12.8298     2.6242    -6.4597 C       1      m1    -0.0043
    664 C           13.2223     5.2625    -6.7973 C       1      m1     0.0017
    665 C           13.3058     3.4515   -10.2381 C       1      m1    -0.0020
    666 C           13.5476     3.8060    -6.6416 C       1      m1     0.0025
    667 C           14.2256     6.1103    -6.2103 C       1      m1    -0.0174
    668 C           14.7747     2.6642    -8.3807 C       1      m1     0.0089
    669 C           14.8809     3.5530    -7.2199 C       1      m1    -0.0110
    670 C           15.5606     4.6314    -9.8244 C       1      m1    -0.0038
    671 H           15.7192     4.2001    -7.1178 H       1      m1     0.0215
    672 C           15.7957     2.5808    -9.4552 C       1      m1     0.0113
    673 C           15.9343     5.9075    -9.5172 C       1      m1    -0.0032
    674 C          -15.8260     7.1691    -9.8830 C       1      m1    -0.0086
    675 C          -15.3517     9.2192    -8.6225 C       1      m1    -0.0038
    676 C          -15.0649    10.1076    -7.7031 C       1      m1     0.0034
    677 C          -14.8750     8.1632    -9.3605 C       1      m1     0.0326
    678 C          -13.5185     7.9795   -10.0194 C       1      m1    -0.0388
    679 C          -12.2449     7.8365    -9.2406 C       1      m1     0.2130
    680 O          -12.1824     8.2064    -7.6876 O       1      m1    -0.4952
    681 H          -12.1650     6.1950    -6.1069 H       1      m1     0.0433
    682 H          -12.2334    10.0116    -9.7796 H       1      m1     0.0358
    683 C          -11.0854     7.7260    -9.9950 C       1      m1    -0.0497
    684 C          -10.9170     7.6958    -7.0541 C       1      m1     0.2419
    685 C           -9.8382     7.4123    -7.8689 C       1      m1    -0.0599
    686 C           -9.6411     7.8731    -9.2463 C       1      m1     0.0365
    687 C           -8.6669    10.3336    -6.9042 C       1      m1    -0.0645
    688 C           -8.8620     6.4469    -7.1985 C       1      m1    -0.0006
    689 C           -8.3689     8.2258    -9.6763 C       1      m1    -0.0295
    690 H           -7.4407     7.9944    -9.2050 H       1      m1     0.0648
    691 C           -7.2116     9.5916    -6.9746 C       1      m1     0.3312
    692 H           -6.5263     7.2517   -10.3635 H       1      m1     0.0323
    693 O           -6.2982     9.6027    -7.7914 O       1      m1    -0.4727
    694 C           -6.0624     6.3496    -9.7648 C       1      m1    -0.0069
    695 C           -3.7500     8.3807    -6.4973 C       1      m1     0.2557
    696 O           -3.6646     8.4462    -8.0422 O       1      m1    -0.4278
    697 C           -3.4112     6.3270    -9.5147 C       1      m1    -0.0205
    698 C           -3.1933     7.0402    -8.3180 C       1      m1     0.1727
    699 C           -3.0880     6.3390    -7.1702 C       1      m1     0.2320
    700 C           -0.5237     6.8163    -9.6197 C       1      m1     0.2624
    701 C           -0.4534     6.0967    -6.8554 C       1      m1     0.0173
    702 C           -0.2184     8.1299    -9.2223 C       1      m1    -0.0480
    703 C           -0.2101     7.6815    -6.8353 C       1      m1    -0.0228
    704 C            0.2471     8.6158    -7.9018 C       1      m1     0.0252
    705 C            1.2275     9.6873    -7.6553 C       1      m1    -0.0245
    706 H            1.6544    10.5420    -8.3260 H       1      m1     0.0223
    707 C            1.8473     8.5438   -10.2559 C       1      m1    -0.0009
    708 H            2.1918     6.6950    -8.5173 H       1      m1     0.0164
    709 C            2.4713     7.3635    -9.4929 C       1      m1    -0.0094
    710 C            3.8364     7.3540    -9.6735 C       1      m1    -0.0151
    711 C            4.4162     9.0067    -6.5102 C       1      m1    -0.0032
    712 H            4.7053     6.9751    -9.0033 H       1      m1     0.0171
    713 C            4.4903     8.7121   -10.1455 C       1      m1    -0.0065
    714 C            5.1060     8.6535    -7.6444 C       1      m1    -0.0174
    715 C            5.1464     9.3977    -8.9464 C       1      m1     0.0011
    716 H            5.7667     7.6797    -7.6742 H       1      m1     0.0137
    717 H            7.1001     9.0645    -9.5545 H       1      m1     0.0252
    718 C            7.5982     8.6364   -10.3628 C       1      m1    -0.0389
    719 H            7.9049     8.7571    -6.5685 H       1      m1     0.0181
    720 C            9.1955     6.6982    -9.6323 C       1      m1    -0.0019
    721 C            9.4233     8.9487    -9.0518 C       1      m1    -0.0044
    722 C           10.1489     8.0353    -8.0823 C       1      m1    -0.0171
    723 C            9.9622    10.3694    -9.1609 C       1      m1    -0.0029
    724 C           10.1683     6.6987    -8.5006 C       1      m1     0.0052
    725 H           10.8425     8.4010    -7.0940 H       1      m1     0.0253
    726 H           12.6358     7.1876    -7.8024 H       1      m1     0.0207
    727 C           13.0286     8.2497    -6.4158 C       1      m1     0.0108
    728 H           15.4148     9.5904    -8.2374 H       1      m1     0.0118
    729 H          -15.8766    13.0942    -7.0173 H       1      m1     0.0241
    730 C          -14.2648    10.8787    -6.9940 C       1      m1     0.0193
    731 C          -14.1757    14.4797    -6.5318 C       1      m1    -0.0246
    732 C          -13.8806    13.3346    -6.7043 C       1      m1     0.0027
    733 C          -13.3544    12.0533    -6.8248 C       1      m1    -0.0310
    734 H          -12.8646    11.1461    -8.2590 H       1      m1     0.0401
    735 C          -12.2457    10.9629    -9.2530 C       1      m1    -0.0328
    736 C          -10.9094    11.7790    -9.4639 C       1      m1    -0.0006
    737 C          -10.8349    13.0292    -9.7274 C       1      m1    -0.0060
    738 C          -10.7520    14.3922   -10.1186 C       1      m1    -0.0179
    739 C           -9.6266    10.9889    -9.4709 C       1      m1     0.0017
    740 C           -9.1033    10.7383    -8.1941 C       1      m1     0.0364
    741 H           -8.5749    14.4755    -8.9052 H       1      m1     0.0196
    742 C           -5.9209    12.3749    -6.7886 C       1      m1    -0.0278
    743 H           -5.3196    11.4039    -6.8340 H       1      m1     0.0741
    744 C           -5.1290    13.1693    -7.1821 C       1      m1     0.0023
    745 C           -4.8266    11.3709    -9.8047 C       1      m1     0.0575
    746 C           -4.4070    14.2090    -7.5900 C       1      m1     0.0005
    747 C           -3.8339    12.1605    -9.4570 C       1      m1     0.0072
    748 C           -2.9174    13.6713    -8.0818 C       1      m1     0.0134
    749 C           -2.7426    12.7934    -9.4021 C       1      m1    -0.0162
    750 H           -1.9604    12.7368   -10.1086 H       1      m1     0.0183
    751 C           -1.9900    13.4687    -7.2054 C       1      m1     0.0061
    752 H            0.9358    13.9539    -8.1123 H       1      m1     0.0194
    753 C            1.3057    11.9752    -7.0513 C       1      m1    -0.0088
    754 C            1.4448    13.1801    -7.3783 C       1      m1    -0.0188
    755 C            1.4044    10.5684    -6.5200 C       1      m1    -0.0070
    756 C            2.7218    14.0379    -6.8814 C       1      m1    -0.0025
    757 H            4.1847    11.2630    -6.5426 H       1      m1     0.0387
    758 C            3.8888    13.5044    -6.2670 C       1      m1     0.0099
    759 C            5.0345    13.8016    -7.0928 C       1      m1    -0.0177
    760 C            5.0229    11.6828   -10.1386 C       1      m1     0.2023
    761 H            4.8470    13.5459    -8.1415 H       1      m1     0.0599
    762 C            5.7056    10.6848    -9.2799 C       1      m1    -0.0438
    763 C            6.9674    11.2893    -8.6178 C       1      m1     0.0302
    764 C            6.9517    11.2483    -7.3971 C       1      m1    -0.0193
    765 C            8.0763    11.7394    -9.6216 C       1      m1     0.0120
    766 H            8.5032    13.1321    -8.3021 H       1      m1     0.0208
    767 C            8.7275    13.1317    -9.4003 C       1      m1     0.0033
    768 H            9.5470    12.0291    -7.2548 H       1      m1     0.0169
    769 C            9.3946    11.1901   -10.0627 C       1      m1    -0.0060
    770 C            9.8554    13.6726   -10.2467 C       1      m1    -0.0024
    771 C           10.5871    11.6983    -7.1645 C       1      m1    -0.0199
    772 C           10.9461    10.8694    -8.1166 C       1      m1     0.0005
    773 H           11.8300    13.5696    -7.6131 H       1      m1     0.0188
    774 C           11.6624    12.7517    -6.9260 C       1      m1    -0.0268
    775 C           12.2516    10.3171    -8.5528 C       1      m1    -0.0220
    776 C           12.2343    10.8715    -9.8368 C       1      m1     0.0016
    777 H           12.8235    12.1637    -6.7364 H       1      m1     0.0136
    778 H           13.0365    13.5923    -8.6165 H       1      m1     0.0157
    779 C           12.8925    13.9001    -9.6231 C       1      m1    -0.0211
    780 H           13.4639    10.4515    -8.5401 H       1      m1     0.0158
    781 H           14.5546    12.9120    -7.2202 H       1      m1     0.0245
    782 H           15.4941    11.3622    -7.4515 H       1      m1     0.0231
    783 C           15.2545    12.2999    -7.0092 C       1      m1    -0.0624
    784 H          -15.2065   -12.5484    -1.8847 H       1      m1     0.0271
    785 C          -13.6595   -14.1578    -5.0641 C       1      m1     0.0090
    786 C          -13.1671   -12.8367    -5.2300 C       1      m1    -0.0077
    787 C          -12.9050   -10.6818    -2.8150 C       1      m1    -0.0198
    788 H          -12.0901   -11.2819    -2.5887 H       1      m1     0.0183
    789 C          -11.8234   -12.6024    -5.2632 C       1      m1     0.0004
    790 C          -11.3161   -11.2578    -5.3915 C       1      m1    -0.0012
    791 C          -10.8178   -13.7799    -5.4346 C       1      m1    -0.0007
    792 H          -10.4315   -13.2864    -2.2082 H       1      m1     0.0154
    793 C           -9.8816   -14.4832    -2.1268 C       1      m1    -0.0082
    794 H           -9.1286   -12.6481    -3.9983 H       1      m1     0.0185
    795 C           -8.3459   -11.7507    -3.9040 C       1      m1    -0.0100
    796 C           -7.8272   -11.8305    -2.4852 C       1      m1    -0.0289
    797 C           -7.4228   -13.3185    -2.2757 C       1      m1    -0.0036
    798 C           -7.2774   -11.0618    -4.5541 C       1      m1    -0.0250
    799 H           -6.8801   -11.1251    -2.1160 H       1      m1     0.0204
    800 H           -6.7972   -11.4159    -5.3638 H       1      m1     0.0169
    801 H           -6.2954   -13.4752    -6.1302 H       1      m1     0.0120
    802 H           -5.3627   -11.4705    -2.0721 H       1      m1     0.0168
    803 H           -5.5066   -10.7182    -6.1582 H       1      m1     0.0195
    804 C           -5.2184   -13.0683    -6.0332 C       1      m1    -0.0225
    805 C           -4.3253   -12.7670    -4.9827 C       1      m1    -0.0014
    806 H           -4.6058   -10.9349    -4.2849 H       1      m1     0.0207
    807 C           -3.7443   -11.2433    -4.8922 C       1      m1    -0.0205
    808 C           -3.2457   -13.5529    -4.8717 C       1      m1     0.0028
    809 H           -2.7019   -11.4056    -4.4889 H       1      m1     0.0292
    810 H           -1.7872   -12.7877    -2.6359 H       1      m1     0.0225
    811 H           -0.3325   -10.7361    -4.2860 H       1      m1     0.0130
    812 C           -0.3287   -14.4203    -6.1482 C       1      m1     0.0258
    813 C            0.5221   -13.7745    -4.9196 C       1      m1    -0.0046
    814 C            0.2582   -10.5991    -5.9493 C       1      m1     0.0382
    815 H            2.3314   -11.6197    -3.5112 H       1      m1     0.0186
    816 C            2.2624   -10.7704    -2.4653 C       1      m1    -0.0326
    817 C            3.1752   -11.6425    -5.3658 C       1      m1    -0.0098
    818 C            3.6871   -14.3475    -4.3015 C       1      m1     0.0005
    819 C            3.8551   -10.9743    -4.4561 C       1      m1     0.0001
    820 C            4.5210   -13.8488    -3.6836 C       1      m1    -0.0048
    821 C            5.0279   -10.6186    -5.5899 C       1      m1    -0.0192
    822 C            5.7335   -13.3554    -3.0347 C       1      m1    -0.0092
    823 H            5.9928   -11.2403    -5.7933 H       1      m1     0.0168
    824 H            5.7438   -14.4867    -5.6459 H       1      m1     0.0250
    825 C            6.9192   -10.9103    -2.7469 C       1      m1    -0.0089
    826 C            6.7459   -14.3650    -2.7533 C       1      m1     0.0200
    827 C            8.0268   -13.9155    -2.0065 C       1      m1    -0.0087
    828 H            8.3363   -13.6094    -4.8982 H       1      m1     0.0202
    829 C            9.1236   -14.3253    -4.7852 C       1      m1    -0.0359
    830 H            9.5307   -13.8431    -3.8200 H       1      m1     0.0189
    831 H           10.5559   -11.0109    -3.5546 H       1      m1     0.0168
    832 C           10.7075   -11.2697    -5.7708 C       1      m1     0.0002
    833 C           11.1573   -11.1580    -4.5287 C       1      m1    -0.0198
    834 C           12.2068   -12.3033    -4.1052 C       1      m1     0.0071
    835 C           12.4913   -12.8496    -2.9420 C       1      m1    -0.0241
    836 C           12.6935   -13.1576    -5.0689 C       1      m1    -0.0197
    837 H           12.9957   -13.7426    -2.6016 H       1      m1     0.0249
    838 C           13.4705   -14.3839    -4.6707 C       1      m1    -0.0014
    839 C           14.9617   -10.7334    -5.4456 C       1      m1    -0.0097
    840 H           14.9755   -11.4680    -4.3919 H       1      m1     0.0223
    841 H           15.0660   -13.0100    -3.2715 H       1      m1     0.0192
    842 C           15.8399   -13.8157    -3.5332 C       1      m1    -0.0200
    843 C          -15.7357    -8.9053    -5.1904 C       1      m1    -0.0150
    844 H          -15.8882    -6.9445    -3.3672 H       1      m1     0.0194
    845 H          -15.5040    -8.9139    -6.2580 H       1      m1     0.0195
    846 C          -15.0748    -9.5413    -2.8141 C       1      m1     0.0133
    847 C          -14.9036    -6.6205    -5.2192 C       1      m1    -0.0008
    848 C          -14.7247    -9.3503    -4.2460 C       1      m1     0.0026
    849 C          -13.9093   -10.3691    -1.9991 C       1      m1    -0.0013
    850 C          -13.8129    -7.1482    -5.8463 C       1      m1    -0.0077
    851 C          -13.2947    -8.9249    -4.3914 C       1      m1    -0.0009
    852 C          -12.7169    -7.9142    -5.1465 C       1      m1    -0.0007
    853 C          -12.3875    -9.9022    -3.8783 C       1      m1    -0.0026
    854 C          -11.4367    -7.9354    -5.4826 C       1      m1    -0.0014
    855 C          -11.3029   -10.2020    -4.8158 C       1      m1    -0.0051
    856 H          -11.2288    -9.5449    -2.1383 H       1      m1     0.0210
    857 C          -10.6086    -9.0685    -5.3103 C       1      m1     0.0021
    858 C           -8.4468    -8.1799    -2.1383 C       1      m1     0.0255
    859 C           -7.7026    -9.0457    -3.0913 C       1      m1     0.0098
    860 C           -6.8806    -9.6453    -3.8294 C       1      m1     0.0126
    861 C           -5.4304    -8.9590    -3.9855 C       1      m1    -0.0545
    862 C           -5.0173    -7.8383    -3.2030 C       1      m1     0.2246
    863 C           -4.4756    -9.1099    -5.0145 C       1      m1     0.0051
    864 C           -4.5109   -10.1934    -5.9044 C       1      m1    -0.0374
    865 C           -4.3626    -7.0750    -4.1096 C       1      m1    -0.0149
    866 C           -3.7295    -7.8246    -5.3953 C       1      m1    -0.0104
    867 C           -2.0561    -7.7151    -5.1163 C       1      m1     0.0016
    868 C           -1.7659    -6.4596    -4.3030 C       1      m1    -0.0388
    869 C           -1.3716    -8.8587    -5.0846 C       1      m1    -0.0045
    870 H           -0.9610    -6.1765    -3.8298 H       1      m1     0.0311
    871 C           -0.9239   -10.0206    -5.1234 C       1      m1     0.0087
    872 H            1.1703   -10.2035    -2.3930 H       1      m1     0.0340
    873 H            2.1902    -8.9708    -2.8542 H       1      m1     0.0584
    874 C            2.6832    -7.2667    -5.8778 C       1      m1    -0.0082
    875 C            2.6890    -7.9768    -4.8448 C       1      m1     0.0172
    876 C            2.8227    -8.8085    -3.9468 C       1      m1    -0.0147
    877 C            3.5409   -10.2312    -3.2135 C       1      m1    -0.0190
    878 H            4.2582    -9.5112    -2.9298 H       1      m1     0.0288
    879 C            5.3107    -7.3366    -5.1855 C       1      m1     0.0002
    880 C            6.3778    -7.7664    -4.4360 C       1      m1     0.0008
    881 C            6.7519    -9.7700    -2.8331 C       1      m1    -0.0055
    882 C            6.4132    -8.3976    -3.0561 C       1      m1    -0.0001
    883 C            7.6097    -7.3305    -5.1452 C       1      m1    -0.0211
    884 H            8.3182    -7.9702    -5.7949 H       1      m1     0.0172
    885 C            9.4724    -8.4554    -2.2531 C       1      m1    -0.0176
    886 H           10.5326    -6.8338    -4.5945 H       1      m1     0.0228
    887 C           11.5617    -9.2863    -5.6603 C       1      m1    -0.0214
    888 H           11.7775    -8.2905    -6.0503 H       1      m1     0.0196
    889 C           11.9435    -9.7159    -4.4990 C       1      m1     0.0015
    890 C           12.6818    -9.1450    -3.4870 C       1      m1    -0.0315
    891 C           12.7428    -7.6781    -3.0863 C       1      m1     0.0159
    892 H           12.7309    -9.7661    -2.6049 H       1      m1     0.0831
    893 C           13.1275    -7.0811    -4.2052 C       1      m1    -0.0151
    894 H           14.1682    -8.9407    -4.5193 H       1      m1     0.0273
    895 C           15.0778    -9.4435    -4.6078 C       1      m1    -0.0110
    896 C          -15.9590    -6.3914    -4.4156 C       1      m1    -0.0158
    897 C          -14.7578    -2.5545    -3.0935 C       1      m1     0.0102
    898 C          -13.4669    -2.7509    -2.6442 C       1      m1    -0.0217
    899 H          -12.6376    -3.3856    -3.0237 H       1      m1     0.0149
    900 H           -9.3027    -3.7223    -4.3341 H       1      m1    -0.0388
    901 C           -8.4434    -3.4701    -5.9978 C       1      m1    -0.0268
    902 C           -8.3677    -4.1103    -4.6872 C       1      m1     0.2891
    903 H           -7.1990    -3.5177    -3.2394 H       1      m1     0.3094
    904 O           -7.0992    -3.8830    -4.0543 O       1      m1    -0.6569
    905 H           -2.6217    -5.2363    -3.1937 H       1      m1     0.0302
    906 H           -2.7028    -5.3998    -5.6301 H       1      m1     0.0221
    907 C           -3.1267    -6.0279    -3.8922 C       1      m1     0.0195
    908 C           -0.6928    -2.3159    -2.2589 C       1      m1     0.0202
    909 C           -0.1350    -2.5643    -6.2020 C       1      m1     0.2133
    910 C            0.0034    -3.9167    -5.8779 C       1      m1    -0.0584
    911 C            0.4567    -3.7954    -4.4635 C       1      m1    -0.0590
    912 H            0.6120    -4.5916    -3.6268 H       1      m1     0.0246
    913 C            0.6914    -2.4747    -2.7230 C       1      m1    -0.0453
    914 C            0.8349    -2.4874    -4.1873 C       1      m1     0.2531
    915 C            3.5775    -5.1806    -5.2851 C       1      m1     0.0009
    916 C            3.8238    -3.8428    -5.1604 C       1      m1    -0.0039
    917 C            3.9505    -2.5860    -5.1008 C       1      m1     0.0006
    918 C            4.6560    -4.8903    -2.4475 C       1      m1     0.0054
    919 C            4.5729    -5.9582    -4.7960 C       1      m1    -0.0015
    920 C            5.1711    -5.2097    -3.6266 C       1      m1     0.0050
    921 C            6.4842    -4.4409    -3.9303 C       1      m1    -0.0164
    922 H            7.0904    -4.0930    -4.7925 H       1      m1     0.0185
    923 C            7.0382    -3.4618    -2.9366 C       1      m1    -0.0116
    924 C            7.9957    -6.0371    -4.8653 C       1      m1    -0.0019
    925 C            8.4871    -3.4853    -3.2784 C       1      m1    -0.0006
    926 H            8.1728    -3.0028    -5.2108 H       1      m1     0.0167
    927 C            9.2636    -5.0658    -5.3274 C       1      m1     0.0115
    928 C            9.0728    -3.6912    -4.7613 C       1      m1    -0.0359
    929 C            9.4052    -3.1866    -2.3426 C       1      m1     0.0278
    930 H           10.2822    -3.6318    -4.9458 H       1      m1     0.0179
    931 C           10.4107    -6.0663    -5.2296 C       1      m1    -0.0268
    932 C           11.5302    -5.8137    -6.0239 C       1      m1     0.0016
    933 C           12.9232    -6.1396    -6.2245 C       1      m1    -0.0261
    934 C           12.9599    -3.5921    -2.5413 C       1      m1    -0.0039
    935 C           13.0364    -2.5366    -5.4005 C       1      m1    -0.0040
    936 C           13.6161    -2.4801    -2.9061 C       1      m1    -0.0215
    937 C           13.7236    -5.9775    -4.8016 C       1      m1    -0.0004
    938 C           13.9866    -2.2645    -4.4065 C       1      m1     0.0146
    939 C           14.9804    -5.3848    -4.4555 C       1      m1    -0.0028
    940 C           15.2620    -2.8007    -4.5228 C       1      m1     0.0118
    941 C           15.2373    -3.9850    -5.3263 C       1      m1    -0.0038
    942 C          -15.8360    -2.1408    -3.5649 C       1      m1    -0.0246
    943 C          -14.5581     1.1126    -4.9309 C       1      m1     0.2141
    944 H          -14.0396     0.4015    -2.8997 H       1      m1     0.0256
    945 C          -13.6416     0.3313    -5.7998 C       1      m1    -0.0689
    946 C          -13.3793    -0.3690    -3.4569 C       1      m1    -0.0105
    947 C          -13.2991    -1.3007    -2.1935 C       1      m1    -0.0262
    948 H          -13.2193     1.9858    -3.0937 H       1      m1     0.0166
    949 C          -12.6901    -0.3349    -4.6577 C       1      m1    -0.0213
    950 H          -11.8761    -1.0204    -4.9180 H       1      m1     0.0133
    951 H          -11.5188     2.3308    -5.1269 H       1      m1     0.0190
    952 H          -11.0514    -0.3766    -3.0291 H       1      m1     0.0124
    953 C          -10.7386     0.5075    -2.3996 C       1      m1    -0.0113
    954 C          -10.3025     1.2610    -3.6299 C       1      m1    -0.0011
    955 C           -9.4457     0.7008    -4.6582 C       1      m1    -0.0331
    956 H           -9.7692     1.3863    -5.4187 H       1      m1     0.0167
    957 C           -8.2597    -0.1973    -4.5712 C       1      m1     0.0085
    958 H           -8.5670    -1.0974    -2.3711 H       1      m1     0.0129
    959 C           -7.9609    -0.9253    -3.4084 C       1      m1    -0.0094
    960 C           -7.1626    -0.0715    -5.5381 C       1      m1    -0.0263
    961 C           -6.5520    -0.7107    -3.4801 C       1      m1    -0.0155
    962 C           -6.0708    -0.2256    -4.6891 C       1      m1     0.0094
    963 H           -5.7638    -1.0642    -2.9187 H       1      m1     0.0542
    964 H           -5.6112     1.0183    -2.6356 H       1      m1     0.0283
    965 C           -4.6443    -0.0030    -4.6020 C       1      m1    -0.0006
    966 C           -4.1708     1.2878    -4.7955 C       1      m1    -0.0012
    967 C           -3.6265    -1.3037    -4.5585 C       1      m1    -0.0208
    968 H           -3.6799    -1.5304    -3.5192 H       1      m1     0.0720
    969 C           -3.3480    -1.5958    -5.7483 C       1      m1     0.0224
    970 C           -2.7309     1.2450    -4.0876 C       1      m1     0.0046
    971 C           -2.8764     0.0825    -1.8034 C       1      m1     0.2506
    972 C           -1.9304     0.4335    -3.0946 C       1      m1    -0.0613
    973 H           -1.2824    -0.2113    -3.6121 H       1      m1     0.0762
    974 H           -1.4180    -1.7296    -2.8890 H       1      m1     0.0393
    975 H            0.7255     1.1415    -4.6082 H       1      m1     0.2890
    976 O            0.3408    -1.4876    -5.1643 O       1      m1    -0.5172
    977 O            1.0250     1.3940    -3.6909 O       1      m1    -0.5906
    978 C            3.2158    -0.4979    -5.8876 C       1      m1     0.0434
    979 C            3.9278    -1.1104    -4.9744 C       1      m1    -0.0114
    980 H            4.7721    -0.6555    -4.3368 H       1      m1     0.0228
    981 C            6.1921     1.7623    -5.0540 C       1      m1     0.0024
    982 C            6.6911     1.5023    -2.3447 C       1      m1     0.0051
    983 C            7.3512     0.6678    -3.1387 C       1      m1    -0.0107
    984 C            7.5488     1.0252    -4.6241 C       1      m1     0.0069
    985 H            6.9615    -1.2644    -5.6287 H       1      m1     0.0176
    986 C            8.5086    -0.1259    -2.3068 C       1      m1    -0.0346
    987 C            8.5803     0.4296    -5.0349 C       1      m1    -0.0356
    988 H            9.0445     1.9807    -2.1868 H       1      m1     0.0182
    989 H            9.0811    -0.0177    -3.3470 H       1      m1     0.0210
    990 H            9.3324     0.2261    -5.8676 H       1      m1     0.0163
    991 H           11.0958    -2.1550    -4.2553 H       1      m1     0.0117
    992 H           11.1567     0.3420    -5.0911 H       1      m1     0.0149
    993 C           11.8683    -1.6347    -5.0600 C       1      m1    -0.0144
    994 C           11.9321    -0.3536    -5.6184 C       1      m1    -0.0104
    995 H           12.1194     1.7248    -2.9685 H       1      m1     0.0293
    996 H           14.1007    -1.7892    -2.1567 H       1      m1     0.0210
    997 H          -16.0328    -1.1456    -3.4600 H       1      m1     0.0703
    998 O          -15.9399     0.8568    -4.7964 O       1      m1    -0.4391
    999 H          -15.3547     3.7885    -2.9587 H       1      m1     0.0288
   1000 C          -15.8981     5.6742    -2.6195 C       1      m1    -0.0052
   1001 C          -15.1058     2.4614    -5.0017 C       1      m1     0.0779
   1002 C          -14.5388     3.5749    -5.2464 C       1      m1    -0.0433
   1003 C          -13.3630     4.7010    -5.3453 C       1      m1     0.0037
   1004 H          -13.4961     3.4486    -1.9353 H       1      m1     0.0594
   1005 C          -13.2491     5.4041    -4.1658 C       1      m1    -0.0046
   1006 C          -12.6906     2.7595    -2.4114 C       1      m1    -0.0794
   1007 C          -11.4194     3.2511    -3.2198 C       1      m1     0.0129
   1008 C          -10.9070     2.5683    -4.4278 C       1      m1    -0.0462
   1009 H          -10.2212     3.4313    -4.8790 H       1      m1     0.0193
   1010 C          -10.3225     3.8509    -2.6066 C       1      m1    -0.0059
   1011 C           -8.1771     5.4325    -4.8151 C       1      m1    -0.0038
   1012 C           -8.0129     3.6542    -3.2338 C       1      m1    -0.0025
   1013 C           -7.5417     4.3112    -4.3029 C       1      m1     0.0008
   1014 C           -6.9491     2.6138    -2.8658 C       1      m1    -0.0025
   1015 C           -6.8205     3.0884    -5.4273 C       1      m1    -0.0189
   1016 C           -6.5527     2.1629    -4.2224 C       1      m1     0.0003
   1017 H           -6.0219     3.3410    -6.1862 H       1      m1     0.0295
   1018 C           -5.1271     2.2345    -4.0867 C       1      m1    -0.0196
   1019 H           -4.7550     2.5882    -3.0943 H       1      m1     0.0237
   1020 C           -2.5662     4.2992    -5.7859 C       1      m1     0.2412
   1021 C           -2.5802     5.2077    -4.6673 C       1      m1    -0.0500
   1022 C           -2.5175     5.3131    -3.2541 C       1      m1     0.0048
   1023 C           -2.2751     2.9478    -5.6995 C       1      m1    -0.0536
   1024 C           -1.8410     2.2256    -4.4948 C       1      m1     0.0246
   1025 C           -1.3973     4.3950    -2.8945 C       1      m1    -0.0010
   1026 C           -1.0488     2.8783    -3.3637 C       1      m1    -0.0667
   1027 C            0.0988     2.4690    -2.9277 C       1      m1     0.2426
   1028 H           -0.1347     5.0831    -4.9630 H       1      m1     0.0187
   1029 C            0.0654     5.0242    -5.9920 C       1      m1    -0.0257
   1030 C            1.9834     5.7640    -6.2011 C       1      m1    -0.0110
   1031 C            3.0978     5.7541    -5.2395 C       1      m1     0.0011
   1032 C            4.1202     4.8701    -4.2615 C       1      m1    -0.0223
   1033 C            4.0079     4.1212    -2.8040 C       1      m1     0.0043
   1034 C            4.3655     3.4953    -5.1246 C       1      m1     0.0177
   1035 C            4.9264     2.9245    -2.9070 C       1      m1     0.0178
   1036 H            5.1253     5.3091    -4.1359 H       1      m1     0.0480
   1037 C            5.2855     2.6196    -4.2501 C       1      m1     0.0159
   1038 C            6.5132     6.0019    -6.0415 C       1      m1     0.0299
   1039 C            8.0608     6.0363    -2.5418 C       1      m1     0.2989
   1040 O            8.0512     5.1094    -3.7084 O       1      m1    -0.7385
   1041 H            8.5973     4.5223    -3.6735 H       1      m1     0.3590
   1042 H           10.6315     5.3253    -2.0540 H       1      m1     0.0254
   1043 C           11.2919     4.5985    -2.2585 C       1      m1    -0.0173
   1044 H           11.5900     2.6188    -6.3074 H       1      m1     0.0191
   1045 H           12.2558     6.1161    -3.6596 H       1      m1     0.0575
   1046 C           12.4320     5.2016    -3.1205 C       1      m1    -0.0128
   1047 C           13.5354     4.5391    -3.4119 C       1      m1    -0.0106
   1048 H           14.3668     4.9131    -4.1091 H       1      m1     0.0206
   1049 C           14.4729     3.7399    -2.5500 C       1      m1     0.0088
   1050 H           14.7980     5.6946    -5.4453 H       1      m1     0.0185
   1051 C           15.9680     4.3051    -2.5068 C       1      m1    -0.0212
   1052 C           16.0191     9.2442    -2.8805 C       1      m1    -0.0098
   1053 H          -15.2123     8.9381    -3.8338 H       1      m1     0.0179
   1054 C          -14.6438     9.7111    -2.1213 C       1      m1    -0.0135
   1055 H          -14.3283     6.9607    -3.5692 H       1      m1     0.0208
   1056 H          -13.8860     9.0448    -2.7069 H       1      m1     0.0164
   1057 C          -13.5021     6.4066    -3.0087 C       1      m1    -0.0158
   1058 C          -12.1793     7.3053    -3.1951 C       1      m1     0.0087
   1059 H          -12.3107     9.7798    -3.3229 H       1      m1     0.0157
   1060 C          -11.9995     8.6770    -3.6576 C       1      m1    -0.0206
   1061 C          -11.3019     8.7108    -4.9039 C       1      m1     0.0195
   1062 C          -11.0908     6.9065    -2.3860 C       1      m1    -0.0195
   1063 H          -11.0917     9.7884    -5.3340 H       1      m1     0.0285
   1064 C          -10.7156     7.5427    -5.5956 C       1      m1    -0.0546
   1065 C          -10.0277     7.9759    -2.4163 C       1      m1    -0.0003
   1066 C           -9.5951     7.2629    -4.8906 C       1      m1     0.0035
   1067 C           -9.1409     7.3336    -3.5077 C       1      m1    -0.0031
   1068 C           -8.8003     6.4046    -5.6689 C       1      m1    -0.0085
   1069 H           -8.6845     9.8501    -4.1188 H       1      m1     0.0166
   1070 C           -7.8776     9.6581    -3.2588 C       1      m1    -0.0193
   1071 C           -7.7638     7.1633    -3.2683 C       1      m1    -0.0220
   1072 C           -7.4882     8.2913    -2.4065 C       1      m1    -0.0023
   1073 H           -7.3553     7.1554    -4.2310 H       1      m1     0.0282
   1074 H           -7.0921     9.6881    -5.9389 H       1      m1    -0.0303
   1075 H           -4.2429     9.2699    -2.9280 H       1      m1     0.0208
   1076 H           -3.7929    10.4084    -5.2918 H       1      m1     0.0318
   1077 C           -3.8079     9.2058    -5.3465 C       1      m1    -0.0587
   1078 C           -3.6455     8.9373    -3.8594 C       1      m1    -0.0026
   1079 C           -3.1426     7.1108    -6.1534 C       1      m1    -0.0960
   1080 C           -3.1566     7.4668    -3.7847 C       1      m1    -0.0074
   1081 C           -2.7002     9.9844    -3.1760 C       1      m1    -0.0418
   1082 C           -2.6547     6.7176    -4.8436 C       1      m1     0.0376
   1083 C           -2.6905     6.6434    -2.5427 C       1      m1    -0.0341
   1084 H           -2.6268    10.3405    -4.3179 H       1      m1     0.0211
   1085 H           -1.9657     9.4671    -2.6737 H       1      m1     0.0173
   1086 H           -0.3276     7.7349    -5.7951 H       1      m1     0.0181
   1087 H            0.5848     6.6286    -1.9096 H       1      m1     0.0130
   1088 C            1.4238     6.9849    -2.4304 C       1      m1    -0.0220
   1089 C            1.6417     6.8742    -3.6611 C       1      m1    -0.0038
   1090 H            1.6867     9.0521    -4.8048 H       1      m1     0.0173
   1091 C            2.1797     6.8472    -5.0457 C       1      m1    -0.0130
   1092 C            2.2137     9.9685    -5.2141 C       1      m1    -0.0211
   1093 C            3.6910     9.3649    -5.3994 C       1      m1     0.0342
   1094 C            3.9332     8.4339    -4.4277 C       1      m1     0.0201
   1095 C            3.9904     7.6783    -3.3157 C       1      m1    -0.0126
   1096 H            4.8930     7.1735    -3.4600 H       1      m1     0.0306
   1097 C            6.7828     7.0383    -5.6248 C       1      m1     0.0282
   1098 H            8.0336    10.5054    -1.7772 H       1      m1     0.0240
   1099 C            7.2951     8.3853    -5.4523 C       1      m1    -0.0052
   1100 C            7.5660     9.3078    -4.5105 C       1      m1     0.0119
   1101 H            7.5721     8.7945    -3.5287 H       1      m1     0.0375
   1102 H            9.2371    10.7116    -3.0458 H       1      m1     0.0218
   1103 H            9.8491     7.4242    -2.9156 H       1      m1     0.0931
   1104 C           11.2074     9.7535    -2.2319 C       1      m1     0.2603
   1105 O           11.7174     8.7271    -3.1802 O       1      m1    -0.5173
   1106 C           12.1844     9.8065    -4.2204 C       1      m1     0.2136
   1107 C           12.5706     9.3573    -5.5791 C       1      m1    -0.0359
   1108 H           13.9683     8.4148    -1.8778 H       1      m1     0.0471
   1109 C           14.4418     7.6001    -6.3149 C       1      m1    -0.0175
   1110 H           14.7685    10.2585    -5.5826 H       1      m1     0.0189
   1111 C           15.0437     8.1573    -2.3943 C       1      m1    -0.0103
   1112 H           15.4151     8.0443    -6.0141 H       1      m1     0.0227
   1113 C           15.2939     6.8721    -2.7085 C       1      m1    -0.0049
   1114 C          -15.8384    12.9189    -3.7008 C       1      m1    -0.0030
   1115 C          -15.6706    14.1275    -2.7684 C       1      m1    -0.0044
   1116 C          -15.4209    11.5969    -3.2494 C       1      m1    -0.0012
   1117 C          -14.3770    11.0559    -2.4537 C       1      m1    -0.0150
   1118 H          -13.4079    11.4420    -2.9297 H       1      m1     0.0145
   1119 H          -13.0863    13.0585    -4.0737 H       1      m1     0.0223
   1120 H          -12.3376    11.9625    -6.6052 H       1      m1     0.0297
   1121 C          -12.8207    13.9286    -4.4159 C       1      m1    -0.0233
   1122 C          -11.5016    14.2475    -4.6927 C       1      m1     0.0029
   1123 C          -10.5095    13.1953    -4.4432 C       1      m1    -0.0047
   1124 C           -9.7225    11.7399    -4.9083 C       1      m1    -0.0253
   1125 C           -9.7042    13.6091    -3.4227 C       1      m1    -0.0217
   1126 H           -9.5995    11.9179    -3.7468 H       1      m1     0.0173
   1127 C           -9.0139    10.8732    -5.7849 C       1      m1     0.0088
   1128 H           -8.6424    13.0159    -3.2342 H       1      m1     0.0116
   1129 C           -6.7338    11.1309    -1.9644 C       1      m1    -0.0073
   1130 C           -6.4696    10.6093    -3.3327 C       1      m1     0.0032
   1131 H           -6.4849    12.6566    -5.8232 H       1      m1     0.0143
   1132 H           -6.5495    12.9196    -3.2349 H       1      m1     0.0114
   1133 C           -6.0208    12.4071    -2.2848 C       1      m1    -0.0196
   1134 C           -5.4411    11.0170    -4.1006 C       1      m1    -0.0277
   1135 H           -5.2780    11.1080    -5.0399 H       1      m1     0.0226
   1136 H           -4.5335    12.9971    -3.1473 H       1      m1     0.0220
   1137 C           -4.6325    11.8091    -3.0474 C       1      m1    -0.0089
   1138 C           -3.2876    11.3433    -2.7608 C       1      m1    -0.0118
   1139 C           -2.8163    13.9217    -3.7469 C       1      m1    -0.0027
   1140 C           -2.9453    13.8581    -2.4068 C       1      m1    -0.0583
   1141 C           -2.6883    12.4916    -2.0864 C       1      m1     0.0348
   1142 C           -2.2459    14.4859    -4.8645 C       1      m1     0.0060
   1143 C           -1.1648    13.5456    -5.8566 C       1      m1    -0.0221
   1144 H           -0.4538    12.6695    -5.9130 H       1      m1     0.0203
   1145 H           -0.1283   -14.4759    -2.5732 H       1      m1     0.0218
   1146 C            0.4071    13.8082    -3.0348 C       1      m1    -0.0224
   1147 H            0.5289    10.5130    -3.1745 H       1      m1     0.0171
   1148 C            0.4447    12.4975    -2.5884 C       1      m1     0.0005
   1149 C            1.1614    11.3206    -3.2604 C       1      m1    -0.0236
   1150 C            1.1703    14.1902    -4.2561 C       1      m1    -0.0034
   1151 C            2.1714    11.2161    -4.2461 C       1      m1     0.0197
   1152 C            2.5746    13.6876    -4.4370 C       1      m1    -0.0083
   1153 C            2.9139    12.3003    -4.7569 C       1      m1     0.0429
   1154 C            3.5475    12.0752    -6.0976 C       1      m1    -0.0029
   1155 O            5.2072    11.2525    -3.6856 O       1      m1    -0.4366
   1156 C            5.7399    12.3567    -2.7512 C       1      m1     0.1834
   1157 C            6.2348    13.8272    -6.2691 C       1      m1    -0.0004
   1158 C            6.2428    13.5115    -2.7449 C       1      m1    -0.0625
   1159 C            7.0725    11.4585    -6.0068 C       1      m1     0.0311
   1160 C            7.2141    12.8947    -5.6598 C       1      m1     0.0086
   1161 C            7.8945    10.6792    -4.9660 C       1      m1     0.0161
   1162 C            8.1955    13.3226    -4.7755 C       1      m1     0.0009
   1163 C            8.7325    11.2716    -3.8602 C       1      m1    -0.0149
   1164 C            8.9041    12.7166    -3.6353 C       1      m1     0.0015
   1165 C            9.1029    13.0181    -2.2901 C       1      m1    -0.0109
   1166 H           10.0459   -13.9807    -1.7937 H       1      m1     0.0203
   1167 C           10.2654    14.2724    -5.7753 C       1      m1     0.0054
   1168 H           11.2172    12.3438    -4.6422 H       1      m1     0.0233
   1169 C           11.1984    13.1609    -5.4938 C       1      m1    -0.0168
   1170 C           11.5104    11.1638    -2.3026 C       1      m1    -0.0441
   1171 C           12.0757    11.0866    -3.6480 C       1      m1    -0.0562
   1172 C           12.4997    12.5795    -3.5593 C       1      m1     0.0122
   1173 C           12.6224    13.5254    -4.5740 C       1      m1    -0.0085
   1174 C           12.9122    12.8395    -2.0038 C       1      m1    -0.0744
   1175 C           15.0241    14.5185    -4.3899 C       1      m1    -0.0029
   1176 C           15.0226    12.0376    -5.5323 C       1      m1     0.0008
   1177 C           15.2269    10.8764    -4.7455 C       1      m1    -0.0195
   1178 C           15.2122    13.1531    -4.6643 C       1      m1    -0.0031
   1179 C           15.5260    10.5995    -3.3958 C       1      m1     0.0108
   1180 H          -15.1054   -12.9984    -0.1952 H       1      m1     0.0191
   1181 C          -14.5687   -13.0903    -1.2380 C       1      m1    -0.0520
   1182 H          -15.0852   -10.8393    -0.4994 H       1      m1     0.0235
   1183 C          -14.0313   -10.8036    -0.5910 C       1      m1    -0.0277
   1184 H          -13.3945   -12.8016    -1.2060 H       1      m1     0.0232
   1185 H          -12.4677   -14.3566    -0.2834 H       1      m1     0.0215
   1186 C          -12.7785   -11.1651     0.0199 C       1      m1    -0.0061
   1187 C          -11.3577   -11.3205     0.3473 C       1      m1    -0.0203
   1188 C          -11.1022   -11.9595     1.7110 C       1      m1     0.0046
   1189 H          -10.9258   -10.6208    -0.5012 H       1      m1     0.0183
   1190 C           -9.6626   -14.1394     0.4253 C       1      m1    -0.0201
   1191 H           -8.6585   -13.7002     0.2406 H       1      m1     0.0208
   1192 H           -8.8855   -11.0750     1.1545 H       1      m1     0.0147
   1193 H           -8.6072   -11.3183    -1.7794 H       1      m1     0.0149
   1194 C           -8.4860   -14.2794    -1.7563 C       1      m1    -0.0207
   1195 H           -6.0896   -11.9442     1.8262 H       1      m1     0.0145
   1196 C           -5.9408   -14.0743     0.5459 C       1      m1     0.0085
   1197 C           -5.9728   -13.4626    -1.8527 C       1      m1    -0.0094
   1198 C           -5.8073   -10.8601    -0.4156 C       1      m1    -0.0090
   1199 C           -5.6016    14.5499    -0.8544 C       1      m1     0.0134
   1200 C           -5.4133   -12.6767     1.2326 C       1      m1    -0.0120
   1201 C           -4.9656   -11.9808    -0.0439 C       1      m1     0.0148
   1202 C           -5.0076   -12.5091    -1.5416 C       1      m1    -0.0178
   1203 C           -3.6718   -11.1372     0.3028 C       1      m1    -0.0370
   1204 H           -3.8624   -13.9417     1.5511 H       1      m1     0.0924
   1205 H           -3.5193   -11.0342     1.3459 H       1      m1     0.0212
   1206 C           -2.8037   -14.2646    -1.3146 C       1      m1     0.2601
   1207 C           -2.0970   -13.1014    -1.6336 C       1      m1    -0.0603
   1208 C           -1.6234   -13.5635     0.3948 C       1      m1     0.2364
   1209 C           -1.4298   -12.7081    -0.5716 C       1      m1    -0.0729
   1210 C           -1.0508   -13.4305     1.8584 C       1      m1    -0.0520
   1211 H           -0.9617   -11.7767    -0.5766 H       1      m1     0.0258
   1212 C            0.2275   -13.0833     1.7051 C       1      m1     0.0017
   1213 H            1.2538   -13.3403    -0.1395 H       1      m1     0.0181
   1214 C            1.3171   -13.0011     0.9531 C       1      m1    -0.0065
   1215 C            2.1495   -11.9182     1.4430 C       1      m1     0.0168
   1216 C            2.5197   -11.2264     0.2553 C       1      m1    -0.0075
   1217 C            2.8452   -10.8270    -1.0317 C       1      m1     0.0103
   1218 H            4.1604   -13.7116    -0.6757 H       1      m1     0.0310
   1219 H            5.0326   -11.1545     1.2197 H       1      m1     0.0332
   1220 C            5.0403   -13.0367    -0.8326 C       1      m1    -0.0211
   1221 C            5.6782   -12.4927    -1.9456 C       1      m1     0.0023
   1222 C            5.9861   -13.1998     0.2738 C       1      m1     0.0219
   1223 H            6.8647    13.8777     1.3060 H       1      m1     0.0214
   1224 C            6.7854   -12.0729     1.0840 C       1      m1    -0.0058
   1225 C            6.9058   -11.8505    -1.8332 C       1      m1    -0.0027
   1226 C            7.8892   -12.7024    -1.5733 C       1      m1    -0.0054
   1227 C            8.2255   -12.2521     0.9237 C       1      m1    -0.0039
   1228 C            8.7774   -12.1496    -0.4753 C       1      m1    -0.0015
   1229 C            9.0457   -10.9208    -1.0278 C       1      m1    -0.0027
   1230 C            9.2051   -12.7189     1.9859 C       1      m1     0.0054
   1231 C           10.5347   -13.5986     2.0828 C       1      m1     0.0014
   1232 C           11.4545   -12.8420     1.5097 C       1      m1     0.0155
   1233 H           12.2730   -11.0925    -1.6487 H       1      m1     0.0551
   1234 C           12.4793   -12.2381     0.9899 C       1      m1     0.0163
   1235 C           12.4757   -12.1700    -1.5790 C       1      m1    -0.0099
   1236 C           12.9540   -12.8983    -0.3606 C       1      m1    -0.0016
   1237 C           13.0399   -10.8212     1.2903 C       1      m1    -0.0114
   1238 C           13.4540   -14.3800    -0.0484 C       1      m1    -0.0010
   1239 C           14.5590   -13.9496     1.8775 C       1      m1     0.0124
   1240 H           14.6023   -12.2421     0.2790 H       1      m1     0.0304
   1241 C           14.8768   -12.7255     1.1310 C       1      m1    -0.0279
   1242 C           15.4824   -11.7707     2.0416 C       1      m1     0.0040
   1243 C           15.4370   -10.3665     2.1361 C       1      m1     0.0132
   1244 C           15.8957    -9.1464    -2.0990 C       1      m1    -0.0533
   1245 H          -15.1333    -8.0495     1.1867 H       1      m1     0.0169
   1246 H          -14.4748    -8.8979    -1.0215 H       1      m1     0.0203
   1247 C          -14.0199    -7.7096     0.9161 C       1      m1    -0.0134
   1248 C          -13.7379    -7.9903    -0.5404 C       1      m1    -0.0169
   1249 C          -13.2680    -6.9862    -0.9731 C       1      m1     0.0105
   1250 C          -13.0788    -7.3764     1.9679 C       1      m1    -0.0198
   1251 H          -12.5235    -9.7144     1.3272 H       1      m1     0.0211
   1252 C          -11.7499    -7.2125     1.5148 C       1      m1     0.0022
   1253 C          -11.3668    -9.7101     1.0684 C       1      m1    -0.0191
   1254 C          -11.1110    -8.7470    -0.1834 C       1      m1    -0.0005
   1255 C          -11.0484    -7.2443     0.1600 C       1      m1    -0.0024
   1256 C          -10.9754    -8.7712    -1.5559 C       1      m1    -0.0242
   1257 C          -10.0860    -6.6849    -0.7975 C       1      m1     0.0036
   1258 C           -9.8288    -7.8362    -1.8452 C       1      m1     0.0009
   1259 C           -7.9198    -6.8031    -1.4850 C       1      m1    -0.0520
   1260 H           -7.7163   -10.3833    -0.6847 H       1      m1     0.0185
   1261 C           -6.6983    -6.4153    -1.2654 C       1      m1     0.2671
   1262 C           -6.5774   -10.0511    -0.7030 C       1      m1    -0.0425
   1263 H           -5.9654    -9.0484    -0.6632 H       1      m1     0.0707
   1264 O           -5.5109    -7.2050    -1.7737 O       1      m1    -0.5195
   1265 C           -5.1320    -6.3673     0.5054 C       1      m1     0.0086
   1266 H           -4.7433    -6.3648     1.6065 H       1      m1     0.0114
   1267 C           -4.0135    -6.4175    -0.5012 C       1      m1     0.1111
   1268 H           -3.1908   -10.4474    -0.4153 H       1      m1     0.0225
   1269 C           -2.7929    -6.4560    -0.4368 C       1      m1    -0.0359
   1270 H           -2.3152    -8.5048    -0.3322 H       1      m1     0.0203
   1271 C           -1.3466    -6.4527    -0.3080 C       1      m1    -0.0363
   1272 C           -1.2244    -8.9144    -0.4306 C       1      m1    -0.1020
   1273 H           -1.1217    -9.5544    -1.3709 H       1      m1     0.0358
   1274 C           -0.6513    -7.6412    -0.9263 C       1      m1     0.2777
   1275 H           -0.7737    -9.2641     0.5862 H       1      m1     0.0334
   1276 O            0.6825    -7.5177    -1.2159 O       1      m1    -0.5472
   1277 H            1.0311    -6.9056     0.9989 H       1      m1     0.0454
   1278 C            2.2214    -7.2770     1.1733 C       1      m1    -0.0263
   1279 H            2.3028    -8.2015     0.4850 H       1      m1     0.0591
   1280 C            3.2291    -6.2481     0.8513 C       1      m1     0.0059
   1281 H            4.4351    -8.0412     1.0196 H       1      m1     0.0211
   1282 C            5.2082    -7.7754    -0.8055 C       1      m1     0.0117
   1283 C            5.3381    -7.7151     0.5735 C       1      m1    -0.0258
   1284 C            6.3616    -7.6930    -1.7547 C       1      m1    -0.0022
   1285 C            6.6337    -7.6990     1.0726 C       1      m1    -0.0048
   1286 C            7.6974    -6.8436     0.2351 C       1      m1     0.0103
   1287 C            7.6116    -6.8854    -1.2996 C       1      m1     0.0110
   1288 C            8.6656    -7.6038    -1.8760 C       1      m1     0.0032
   1289 C            8.8088    -6.6553     0.8911 C       1      m1     0.0096
   1290 C            9.4717    -9.8056    -1.6429 C       1      m1    -0.0012
   1291 H           10.7029    -8.4689    -2.4630 H       1      m1     0.0210
   1292 C           10.9114    -6.4032    -0.3895 C       1      m1    -0.0086
   1293 H           12.1624    -7.7628    -0.9571 H       1      m1     0.0638
   1294 C           12.6299    -6.9430    -1.5546 C       1      m1    -0.0155
   1295 O           13.7416    -9.4159    -0.9077 O       1      m1    -0.5348
   1296 C           13.8185    -9.8096     0.6353 C       1      m1     0.2099
   1297 C           13.8658    -6.4066    -0.8475 C       1      m1     0.0252
   1298 C           14.8443    -9.3394     1.7151 C       1      m1    -0.0370
   1299 C           14.9408    -8.6008    -1.2899 C       1      m1     0.2471
   1300 C           15.1462    -7.1774    -0.9069 C       1      m1    -0.0687
   1301 H           15.5894    -6.9961    -1.7266 H       1      m1     0.0202
   1302 C          -15.3304    -3.4771     1.6076 C       1      m1    -0.0091
   1303 C          -14.3056    -2.7452     2.1667 C       1      m1     0.0085
   1304 H          -13.6081    -5.5020    -2.3644 H       1      m1     0.0196
   1305 C          -12.8049    -5.9013    -1.6939 C       1      m1    -0.0220
   1306 C          -11.9176    -2.2350     1.0781 C       1      m1    -0.0196
   1307 C          -11.7528    -4.9706    -1.2492 C       1      m1    -0.0022
   1308 C          -11.3603    -3.1345     1.8565 C       1      m1     0.0412
   1309 C          -10.8867    -4.4412    -0.7791 C       1      m1    -0.0103
   1310 C          -10.0493    -3.5335     1.4428 C       1      m1    -0.0009
   1311 C           -9.6417    -4.0170     0.1941 C       1      m1    -0.0087
   1312 C           -8.8298    -5.8806    -0.8286 C       1      m1     0.0042
   1313 C           -8.3989    -4.6673    -0.2465 C       1      m1    -0.0116
   1314 H           -7.4068    -2.8617    -0.6773 H       1      m1     0.0104
   1315 C           -7.1881    -4.9044     0.6709 C       1      m1    -0.0008
   1316 C           -6.3521    -5.8556    -0.0145 C       1      m1    -0.0391
   1317 C           -6.3098    -3.0780    -1.1093 C       1      m1     0.0061
   1318 C           -5.3962    -3.1845    -0.0823 C       1      m1     0.0302
   1319 C           -4.5330    -3.4028     1.1252 C       1      m1     0.0094
   1320 C           -3.2290    -3.2268     0.3737 C       1      m1    -0.0449
   1321 C           -2.7203    -2.3801    -0.6625 C       1      m1     0.2397
   1322 H           -2.1037    -4.8877     1.3837 H       1      m1     0.0222
   1323 C           -2.1499    -4.2483     0.5534 C       1      m1    -0.0230
   1324 C           -1.5154    -2.9217    -1.1970 C       1      m1    -0.0564
   1325 C           -1.1089    -4.0191    -0.3299 C       1      m1     0.0160
   1326 C           -0.4522    -5.4638    -0.6100 C       1      m1    -0.0604
   1327 C            0.6181    -5.9615    -1.1640 C       1      m1     0.2097
   1328 C            1.7672    -5.1709    -1.7547 C       1      m1    -0.0242
   1329 C            1.9677    -2.6763    -2.0144 C       1      m1     0.0001
   1330 C            2.5273    -4.1372    -2.1106 C       1      m1    -0.0006
   1331 C            3.8602    -4.3066    -1.4853 C       1      m1     0.0037
   1332 C            3.9698    -5.4190     0.9291 C       1      m1    -0.0035
   1333 C            4.3985    -3.1094    -0.6552 C       1      m1    -0.0027
   1334 C            5.1568    -4.8165     0.9018 C       1      m1    -0.0047
   1335 C            5.5522    -3.7784     0.0653 C       1      m1    -0.0498
   1336 H            6.0643    -5.0303     1.4254 H       1      m1     0.0378
   1337 H            6.3351    -3.1900    -2.1036 H       1      m1     0.0247
   1338 H            6.6862    -2.2744    -0.3820 H       1      m1    -0.0282
   1339 C            6.9385    -2.9501     0.4035 C       1      m1     0.3025
   1340 O            8.1127    -3.3905     0.6728 O       1      m1    -0.4768
   1341 C           10.0944    -5.8508     0.6552 C       1      m1     0.0394
   1342 H           11.0621    -3.4566    -1.1028 H       1      m1     0.0382
   1343 C           10.4316    -2.7411    -1.6017 C       1      m1    -0.0178
   1344 H           11.1133    -2.1308    -2.1726 H       1      m1     0.0136
   1345 C           11.7362    -5.9295    -1.5414 C       1      m1     0.0017
   1346 C           12.2660    -4.6980    -1.9272 C       1      m1    -0.0084
   1347 C           13.6908    -5.8364     1.3804 C       1      m1     0.0053
   1348 C           14.1275    -5.2504     0.0358 C       1      m1    -0.0074
   1349 H           14.9528    -2.5760     1.8026 H       1      m1     0.0230
   1350 C           15.1580    -4.3668    -0.0589 C       1      m1    -0.0037
   1351 C          -15.9713    -3.2697     0.2116 C       1      m1    -0.0062
   1352 C          -15.5803    -0.8808    -0.8203 C       1      m1    -0.0195
   1353 H          -14.7725    -0.6101    -1.4517 H       1      m1     0.0257
   1354 H          -13.9218    -1.7205     0.4401 H       1      m1     0.0251
   1355 H          -13.4228    -0.7747     1.9140 H       1      m1     0.0255
   1356 C          -13.5200    -1.7647     1.3715 C       1      m1    -0.0321
   1357 H          -12.7509    -1.1056    -1.3914 H       1      m1     0.0195
   1358 C          -12.2642     1.7943     1.4376 C       1      m1     0.2109
   1359 C          -11.7307     0.4704     1.1649 C       1      m1    -0.0417
   1360 H          -11.7019    -2.5073    -0.0023 H       1      m1     0.0143
   1361 C          -11.2625     1.1176    -1.2686 C       1      m1    -0.0558
   1362 C          -11.1299    -0.8318     1.0573 C       1      m1     0.0218
   1363 C           -9.7258    -0.9252     1.1567 C       1      m1     0.0222
   1364 H           -9.0314     0.7294     2.0217 H       1      m1     0.0315
   1365 C           -8.4800    -1.0405     1.3328 C       1      m1    -0.0003
   1366 C           -8.0359     0.4689     1.4711 C       1      m1    -0.0157
   1367 H           -7.9196    -1.9288     0.7368 H       1      m1     0.0108
   1368 C           -7.9883     1.0280     0.0720 C       1      m1    -0.0003
   1369 C           -7.2208     1.2603    -1.0731 C       1      m1     0.0035
   1370 C           -6.6302     1.1551     1.8139 C       1      m1     0.0006
   1371 H           -5.9536    -0.9974     1.1542 H       1      m1     0.0349
   1372 C           -5.9664     1.7206    -1.9052 C       1      m1    -0.0145
   1373 C           -5.3016     0.7838     2.1313 C       1      m1     0.0066
   1374 O           -3.4972    -1.1951    -1.3109 O       1      m1    -0.5266
   1375 C           -3.2683     1.3300    -1.6030 C       1      m1    -0.0533
   1376 H            1.4860     0.2337    -1.9388 H       1      m1     0.0987
   1377 C            2.2450    -0.1003    -1.3308 C       1      m1    -0.0115
   1378 H            3.0210     1.3630    -0.0775 H       1      m1     0.0419
   1379 C            2.6766    -1.5073    -1.6039 C       1      m1     0.0107
   1380 C            3.0340     0.3944    -0.3365 C       1      m1     0.0085
   1381 C            3.6155    -1.8793    -0.6287 C       1      m1    -0.0081
   1382 C            4.0444    -0.5596    -0.0105 C       1      m1     0.0028
   1383 C            5.2982    -0.4446     0.8711 C       1      m1    -0.0223
   1384 H            6.0294    -1.2585     1.3193 H       1      m1     0.0110
   1385 H            7.2728     0.4801     1.2149 H       1      m1     0.0207
   1386 C            7.8050     1.3256     0.6648 C       1      m1    -0.0180
   1387 H            8.0117    -0.9833    -2.0232 H       1      m1     0.0293
   1388 C            9.2688     1.0071    -1.6347 C       1      m1    -0.0215
   1389 C            9.1328     0.8675    -0.1866 C       1      m1    -0.0005
   1390 C            9.2153    -0.1935     1.7978 C       1      m1     0.0160
   1391 H           10.0087    -0.9110    -0.2762 H       1      m1     0.0396
   1392 C            9.7952    -0.3095     0.3920 C       1      m1    -0.0119
   1393 H           12.3455     1.3298    -1.1496 H       1      m1     0.0139
   1394 H           14.0407     0.1914     1.1124 H       1      m1     0.0196
   1395 H           14.2723    -0.6239    -0.9374 H       1      m1     0.0149
   1396 C           14.8856     0.5738     0.6515 C       1      m1    -0.0249
   1397 C           15.0665     1.5591    -1.4217 C       1      m1     0.0131
   1398 C           15.2474     0.0586    -0.7491 C       1      m1    -0.0058
   1399 C           15.6487     0.9990     1.7451 C       1      m1     0.0002
   1400 C           16.0270    -2.0572    -0.3567 C       1      m1    -0.0092
   1401 C          -15.8774     2.4041    -1.0642 C       1      m1    -0.0117
   1402 C          -15.7520     3.9986    -1.1719 C       1      m1     0.0067
   1403 C          -15.3293     4.8030    -0.1859 C       1      m1     0.0134
   1404 H          -15.1381     1.7757    -0.7553 H       1      m1     0.0468
   1405 C          -14.6044     5.9740    -2.0185 C       1      m1    -0.0081
   1406 C          -14.2990     5.7922    -0.5735 C       1      m1     0.0147
   1407 O          -12.6775     2.7466     0.1723 O       1      m1    -0.5098
   1408 C          -12.1673     2.1868    -1.1013 C       1      m1     0.2486
   1409 H          -10.8247     6.0445     1.0078 H       1      m1     0.0169
   1410 H          -10.9520     3.8037     0.6177 H       1      m1     0.0761
   1411 C          -10.8788     5.2992     1.8925 C       1      m1    -0.0034
   1412 C          -10.2086     3.9698     1.5104 C       1      m1    -0.0184
   1413 C           -9.0386     4.1219    -2.2014 C       1      m1    -0.0153
   1414 C           -8.8998     3.6744     1.2180 C       1      m1    -0.0052
   1415 H           -8.7799     4.6730    -1.1054 H       1      m1     0.0200
   1416 C           -7.6519     3.2951     1.2671 C       1      m1    -0.0042
   1417 C           -6.3253     2.8248     1.3350 C       1      m1     0.0000
   1418 C           -5.6030     5.9727     1.7230 C       1      m1    -0.0191
   1419 H           -5.3158     5.9482    -1.6494 H       1      m1     0.0246
   1420 C           -5.3612     3.3484     0.2189 C       1      m1     0.0011
   1421 C           -5.1479     2.8751    -1.1434 C       1      m1    -0.0066
   1422 C           -5.0551     5.7239     0.4024 C       1      m1     0.0026
   1423 C           -4.4532     4.4077     0.6534 C       1      m1    -0.0018
   1424 C           -3.6382     2.6648    -1.0710 C       1      m1     0.0181
   1425 C           -3.0511     4.1754     0.8645 C       1      m1    -0.0005
   1426 C           -2.7487     3.1748    -0.0627 C       1      m1    -0.0181
   1427 C           -2.0971     4.9447     1.6363 C       1      m1    -0.0046
   1428 H           -1.6310     2.9483     0.0267 H       1      m1     0.0259
   1429 H           -0.4241     5.1683    -0.9000 H       1      m1     0.0145
   1430 C           -0.7923     4.6348     1.8410 C       1      m1    -0.0144
   1431 C           -0.6175     4.4458    -1.8185 C       1      m1    -0.0232
   1432 C            0.5623     3.4394    -1.9333 C       1      m1    -0.0298
   1433 C            0.5599     4.9458     1.9174 C       1      m1    -0.0166
   1434 H            1.8628     3.3336     0.0051 H       1      m1     0.0275
   1435 C            1.6700     3.8711    -1.1584 C       1      m1    -0.0038
   1436 H            3.2069     6.2787    -0.9273 H       1      m1     0.0162
   1437 C            2.8700     4.0967    -1.9919 C       1      m1     0.0100
   1438 H            5.8165     3.1655    -1.1638 H       1      m1     0.0238
   1439 C            5.8393     2.6157    -1.9541 C       1      m1    -0.0196
   1440 H            5.8040     5.9746    -1.4079 H       1      m1     0.0290
   1441 C            6.4022     4.5606     1.6750 C       1      m1    -0.0053
   1442 C            6.9752     5.9055     1.5950 C       1      m1     0.0023
   1443 C            7.3939     3.6774     1.2450 C       1      m1    -0.0025
   1444 C            7.4861     2.5640     0.9395 C       1      m1    -0.0060
   1445 C            8.9053     4.3297     1.7785 C       1      m1    -0.0225
   1446 H            9.6584     3.6219     1.5261 H       1      m1     0.0188
   1447 H           11.6843     2.9091    -0.6764 H       1      m1     0.0121
   1448 C           11.7871     3.4091    -1.6644 C       1      m1    -0.0141
   1449 C           12.4711     2.0379    -2.0790 C       1      m1    -0.0382
   1450 H           12.3869     5.7502    -0.0268 H       1      m1     0.0197
   1451 H           14.4228     5.2776     0.4358 H       1      m1     0.0179
   1452 C           14.0704     2.3877    -1.9732 C       1      m1     0.0110
   1453 C           14.4236     5.7259     1.5577 C       1      m1    -0.0293
   1454 C          -15.3597    10.2153     0.0545 C       1      m1     0.0028
   1455 C          -14.5154     9.2305    -0.6563 C       1      m1    -0.0059
   1456 C          -13.8189     8.2480     0.1114 C       1      m1    -0.0077
   1457 C          -13.5883     6.7896     0.3846 C       1      m1    -0.0175
   1458 H          -12.7002     6.4389     0.9321 H       1      m1     0.0303
   1459 H          -11.0053     8.9538     0.3794 H       1      m1     0.0237
   1460 H          -11.0921     6.0490    -1.6942 H       1      m1     0.0257
   1461 C          -10.5881     9.7277    -0.3964 C       1      m1    -0.0387
   1462 C           -9.7220     9.0171    -1.4889 C       1      m1     0.0003
   1463 C           -9.6553    10.4243     1.8999 C       1      m1    -0.0204
   1464 C           -8.8566    10.0276    -2.0383 C       1      m1    -0.0081
   1465 H           -6.3551     6.7548     1.8727 H       1      m1     0.0198
   1466 H           -6.0231     9.4972     0.1125 H       1      m1     0.0176
   1467 C           -5.2035     6.5095    -0.8507 C       1      m1    -0.0266
   1468 C           -5.1442     8.9210     0.4677 C       1      m1    -0.0167
   1469 C           -5.2645     7.9537    -0.7521 C       1      m1    -0.0135
   1470 H           -4.5226     8.1694    -1.6579 H       1      m1     0.0164
   1471 C           -3.8179     9.3061     0.9981 C       1      m1    -0.0198
   1472 H           -2.7858     6.1936    -1.3653 H       1      m1     0.0147
   1473 H           -3.4150     6.6921     1.0958 H       1      m1     0.0176
   1474 H           -3.3556     8.5130     1.4458 H       1      m1     0.0217
   1475 C           -3.1133     6.2571     2.1614 C       1      m1    -0.0177
   1476 H           -1.5501     7.1335    -2.6186 H       1      m1     0.0096
   1477 H            1.6746     7.5056     0.4810 H       1      m1     0.0159
   1478 C            2.4414     7.7682    -0.0337 C       1      m1    -0.0260
   1479 C            2.6794     7.1625    -1.4891 C       1      m1    -0.0096
   1480 H            2.5730     9.8929     0.7453 H       1      m1     0.0144
   1481 C            3.0297     8.9841     0.1306 C       1      m1    -0.0216
   1482 C            3.6929     7.9707    -1.9159 C       1      m1     0.0058
   1483 C            3.7695     9.2115    -1.1907 C       1      m1     0.0172
   1484 C            4.7776    10.3802    -1.0492 C       1      m1    -0.0320
   1485 H            5.5269     6.8640     0.3583 H       1      m1     0.0202
   1486 C            6.2139    10.1330    -0.1685 C       1      m1     0.0021
   1487 H            6.4832     8.0273     1.3034 H       1      m1     0.0211
   1488 C            6.4847     7.1165     0.7066 C       1      m1    -0.0413
   1489 C            6.9259     6.4416    -1.7603 C       1      m1    -0.0617
   1490 C            7.4422    10.0724    -0.8854 C       1      m1    -0.0142
   1491 C            7.4782     7.0160    -0.6426 C       1      m1     0.0013
   1492 C            8.3660     9.8692     0.2519 C       1      m1     0.0074
   1493 C            8.7259     7.6111    -0.9395 C       1      m1     0.0056
   1494 C            8.8851     7.1504    -2.3315 C       1      m1    -0.0876
   1495 H            9.6456    10.8308     1.5868 H       1      m1     0.0447
   1496 C            9.6263     8.8715    -0.1685 C       1      m1     0.0156
   1497 C           10.4457     9.3972    -1.2939 C       1      m1     0.0002
   1498 C           10.7700     8.2936     0.9079 C       1      m1     0.0274
   1499 C           12.0591     7.8965     0.0766 C       1      m1    -0.0015
   1500 C           11.8181     6.5229     0.4703 C       1      m1    -0.0212
   1501 C           12.1790     6.6238     1.9248 C       1      m1    -0.0003
   1502 H           12.4853     8.3943    -0.8118 H       1      m1     0.0561
   1503 H           15.2217     8.7995     1.1140 H       1      m1     0.0189
   1504 H           15.1838     6.5797     1.4173 H       1      m1     0.0165
   1505 C           15.5114     9.8539     0.8822 C       1      m1    -0.0154
   1506 H          -14.9594    13.4974     0.7414 H       1      m1     0.0227
   1507 C          -15.1472    11.6455     0.0780 C       1      m1     0.0025
   1508 C          -15.2440    12.6393     1.1607 C       1      m1    -0.0248
   1509 C          -14.6980    14.4683    -1.6975 C       1      m1    -0.0011
   1510 C          -14.4944    11.9603    -1.0781 C       1      m1    -0.0030
   1511 C          -14.0088    13.2696    -1.1092 C       1      m1    -0.0074
   1512 C          -13.9529    12.1546     1.8315 C       1      m1     0.0010
   1513 C          -12.7999    13.7518    -0.2426 C       1      m1    -0.0156
   1514 C          -12.7570    12.9511     1.3803 C       1      m1    -0.0164
   1515 H          -11.9518    12.1918     1.2401 H       1      m1     0.0223
   1516 H          -11.7565    12.6604    -1.6406 H       1      m1     0.0204
   1517 C          -11.4893    13.2595    -0.8059 C       1      m1    -0.0180
   1518 H          -11.2074    10.4023    -0.8163 H       1      m1     0.0224
   1519 C          -10.5287    14.3607    -0.6464 C       1      m1     0.0028
   1520 C           -9.6433    14.2913     1.7427 C       1      m1     0.0006
   1521 C           -9.6357    10.4270     0.6549 C       1      m1     0.0090
   1522 H           -7.6463    14.0029    -1.5764 H       1      m1     0.0181
   1523 C           -8.2811    10.9242     0.0737 C       1      m1    -0.0243
   1524 C           -7.9430    10.6917    -1.2046 C       1      m1    -0.0022
   1525 H           -7.8506    11.9016     0.2663 H       1      m1     0.0235
   1526 C           -6.2350    14.3150     1.7958 C       1      m1    -0.0010
   1527 H           -6.0723    10.9586    -0.1229 H       1      m1     0.0200
   1528 C           -5.9490    12.8161     1.4933 C       1      m1     0.0158
   1529 C           -5.6971    13.1207    -0.9558 C       1      m1     0.0065
   1530 C           -5.5737    12.0230     0.2294 C       1      m1    -0.0303
   1531 H           -4.3683    12.1885     0.1629 H       1      m1     0.0528
   1532 C           -3.6825    10.7890     1.2420 C       1      m1    -0.0029
   1533 O           -2.6296    14.4450     0.0707 O       1      m1    -0.5351
   1534 C           -2.5597    11.5924     1.7873 C       1      m1     0.0001
   1535 H           -1.8810    11.3867    -0.0874 H       1      m1     0.0311
   1536 C           -1.6511    11.7975    -1.0462 C       1      m1    -0.0058
   1537 C           -1.1580    12.2602     1.7902 C       1      m1     0.0221
   1538 C           -0.3372    12.2322    -1.2364 C       1      m1     0.0024
   1539 C            0.0384    12.5826     1.5533 C       1      m1     0.0014
   1540 C            0.3964    12.3957     0.0363 C       1      m1     0.0067
   1541 C            1.6689    13.1004    -0.1511 C       1      m1    -0.0227
   1542 H            1.9933    13.2608    -1.1627 H       1      m1     0.0226
   1543 C            2.4272    12.9222     1.0090 C       1      m1     0.0158
   1544 C            3.7826    13.0885     0.4833 C       1      m1     0.0011
   1545 H            4.1318    11.1677     0.9290 H       1      m1     0.0217
   1546 H            3.9252    12.7211    -0.5959 H       1      m1     0.0045
   1547 C            4.7665    11.3004    -2.0201 C       1      m1     0.1091
   1548 C            4.7140    11.2635     1.8137 C       1      m1    -0.0422
   1549 C            5.2092    13.4122     0.9959 C       1      m1     0.0489
   1550 C            5.7038    12.5237     1.9523 C       1      m1     0.0133
   1551 C            6.0016    14.5089     0.6687 C       1      m1     0.0070
   1552 C            5.9186    10.4248     1.1692 C       1      m1    -0.0069
   1553 C            7.1621    10.7970     1.8676 C       1      m1    -0.0021
   1554 H            8.5706    12.3228    -1.6019 H       1      m1     0.0217
   1555 C            8.5269    10.6681     1.3487 C       1      m1    -0.0227
   1556 C            9.2312    14.2687    -1.7448 C       1      m1    -0.0316
   1557 H            9.3310    13.7017    -0.7180 H       1      m1     0.0286
   1558 O           11.6492    11.3509     0.1255 O       1      m1    -0.7584
   1559 H           11.7228    11.6513     0.7674 H       1      m1     0.4048
   1560 C           12.3029    11.9347    -1.4140 C       1      m1     0.2352
   1561 C           13.8738    14.0593     1.2035 C       1      m1    -0.0004
   1562 C           13.8332    13.7760    -1.2559 C       1      m1    -0.0210
   1563 C           14.3096    12.7932     1.7744 C       1      m1    -0.0210
   1564 H           14.2934    14.2233    -2.0046 H       1      m1     0.0231
   1565 H           14.4651    12.9448    -0.8282 H       1      m1     0.0286
   1566 C           14.9365    10.8624     1.4051 C       1      m1     0.0126
   1567 C           15.2952    12.0166     1.4676 C       1      m1    -0.0000
   1568 O          -15.6957   -11.9012     6.1931 O       1      m1    -0.4976
   1569 C          -15.6968   -12.6839     2.9854 C       1      m1     0.0223
   1570 C          -14.6028   -12.5148     5.3454 C       1      m1     0.2201
   1571 C          -14.4147   -12.1360     3.8011 C       1      m1    -0.0488
   1572 C          -13.9891   -13.8888     5.6735 C       1      m1    -0.0400
   1573 H          -13.9672   -11.2683     3.5081 H       1      m1     0.0341
   1574 C          -13.0331   -12.9543     3.2000 C       1      m1    -0.0072
   1575 C          -12.6274   -14.2771     3.2593 C       1      m1    -0.0010
   1576 C          -11.9559   -12.2337     2.6568 C       1      m1    -0.0069
   1577 H          -10.6054   -12.2707     4.6816 H       1      m1     0.0229
   1578 H          -10.3020   -13.9862     5.6079 H       1      m1     0.0191
   1579 C           -9.7135   -11.2386     2.0844 C       1      m1    -0.0185
   1580 C           -9.5174   -11.6561     4.8246 C       1      m1    -0.0389
   1581 H           -9.7758   -10.7262     4.9644 H       1      m1     0.0274
   1582 C           -9.4640   -11.9381     3.3970 C       1      m1    -0.0064
   1583 C           -9.1938   -13.9865     5.4454 C       1      m1    -0.0211
   1584 C           -8.7282   -12.7057     5.7791 C       1      m1    -0.0037
   1585 H           -7.6514   -10.9693     4.1285 H       1      m1     0.0186
   1586 C           -7.2383   -12.2957     5.7341 C       1      m1    -0.0027
   1587 H           -7.4583   -13.4610     2.8681 H       1      m1     0.0234
   1588 C           -6.6176   -11.5766     4.5852 C       1      m1    -0.0378
   1589 H           -6.0611   -12.3980     4.1572 H       1      m1     0.0242
   1590 C           -4.8003   -13.1383     5.8394 C       1      m1    -0.0141
   1591 C           -4.3109   -13.3166     2.1259 C       1      m1    -0.0362
   1592 C           -4.0594   -13.2454     3.4794 C       1      m1    -0.0024
   1593 C           -3.7719   -13.3055     4.7494 C       1      m1    -0.0004
   1594 C           -2.2093   -13.4051     4.8437 C       1      m1    -0.0221
   1595 H           -1.7273   -12.4406     4.5404 H       1      m1     0.0117
   1596 C           -1.6422   -14.4715     5.0582 C       1      m1    -0.0038
   1597 H           -1.6184   -13.7251     2.7831 H       1      m1     0.0370
   1598 C            0.7902   -14.2968     5.5544 C       1      m1    -0.0111
   1599 H            1.4907   -13.7708     3.6702 H       1      m1     0.0332
   1600 C            1.9683   -12.8536     3.8987 C       1      m1     0.0008
   1601 C            2.0199   -13.7271     5.9722 C       1      m1    -0.0007
   1602 C            2.4300   -11.7574     2.8973 C       1      m1     0.0110
   1603 C            2.4904   -12.6625     5.0757 C       1      m1    -0.0245
   1604 H            3.3065   -11.9025     5.0524 H       1      m1     0.0222
   1605 C            3.6554   -10.7112     2.9222 C       1      m1     0.0122
   1606 O            4.3578   -14.2880     2.7743 O       1      m1    -0.5062
   1607 C            5.1001   -10.6279     2.2599 C       1      m1    -0.0360
   1608 C            5.2425   -13.4970     3.8148 C       1      m1     0.2121
   1609 C            5.1922   -14.1132     5.1044 C       1      m1    -0.0337
   1610 C            6.1956   -12.4987     3.5749 C       1      m1    -0.0538
   1611 C            6.3303   -11.4842     2.4263 C       1      m1     0.0137
   1612 H            6.7174   -12.3493     4.5122 H       1      m1     0.0212
   1613 C            6.6980   -14.2688     5.7764 C       1      m1    -0.0010
   1614 C            7.5909   -14.0169     4.7701 C       1      m1    -0.0107
   1615 C            8.2772   -11.1638     3.9600 C       1      m1    -0.0133
   1616 C            8.3037   -13.9348     3.7108 C       1      m1    -0.0141
   1617 C            8.4921   -12.4685     3.2906 C       1      m1     0.0134
   1618 C            8.6762   -10.9847     5.3957 C       1      m1     0.0325
   1619 H            8.7024    13.9842     3.6606 H       1      m1     0.0170
   1620 C            9.5819   -12.1383     5.6852 C       1      m1    -0.0013
   1621 C           11.0621   -12.2153     5.5045 C       1      m1     0.1387
   1622 O           11.4465   -10.9423     4.6824 O       1      m1    -0.4422
   1623 C           12.3711   -11.7584     5.7522 C       1      m1     0.1359
   1624 C           13.8185   -12.5774     5.9216 C       1      m1    -0.0044
   1625 C           13.6495   -13.8188     5.4500 C       1      m1     0.0020
   1626 C           15.7328   -13.9749     2.8957 C       1      m1    -0.0186
   1627 H          -15.8449    -8.2650     2.8434 H       1      m1     0.0202
   1628 H          -13.6082    -7.6205     2.8689 H       1      m1     0.0183
   1629 C          -10.8301    -7.5022     2.7280 C       1      m1     0.0002
   1630 C          -10.4135    -9.8174     2.1919 C       1      m1     0.0026
   1631 C          -10.1801    -6.2598     3.1088 C       1      m1     0.0017
   1632 C          -10.1573    -8.7577     3.1326 C       1      m1    -0.0223
   1633 H           -9.1946    -8.6139     3.2898 H       1      m1     0.0205
   1634 H           -8.0305    -6.0020     5.1255 H       1      m1     0.0226
   1635 H           -5.7760   -10.0297     2.7687 H       1      m1     0.0139
   1636 C           -5.5959   -10.4951     4.8599 C       1      m1     0.0075
   1637 C           -5.4926    -7.0129     3.9770 C       1      m1    -0.0061
   1638 C           -5.5172    -9.5076     3.9235 C       1      m1    -0.0204
   1639 C           -4.7907    -8.2411     4.1490 C       1      m1    -0.0018
   1640 C           -5.0605   -10.3885     6.0646 C       1      m1    -0.0199
   1641 C           -3.9605    -8.1813     5.1346 C       1      m1    -0.0004
   1642 C           -2.5809    -7.9783     5.1624 C       1      m1    -0.0088
   1643 C           -1.2595    -7.6326     5.1886 C       1      m1    -0.0085
   1644 C           -0.4092    -7.6003     4.1652 C       1      m1    -0.0046
   1645 H           -0.2349    -8.2228     2.2949 H       1      m1     0.0154
   1646 C            0.2254    -7.5883     3.0228 C       1      m1    -0.0211
   1647 H            1.2187    -9.4391     4.4206 H       1      m1     0.0110
   1648 C            1.4825    -6.9033     2.6985 C       1      m1    -0.0270
   1649 C            2.2375    -8.9697     4.0220 C       1      m1    -0.0160
   1650 H            2.7055    -6.6246     6.3396 H       1      m1     0.1032
   1651 C            2.4138    -7.5998     3.7128 C       1      m1     0.0340
   1652 C            3.4448    -9.8029     3.9707 C       1      m1    -0.0335
   1653 C            3.7077    -7.2905     4.1763 C       1      m1    -0.0576
   1654 H            4.1559    -9.2131     4.5406 H       1      m1     0.0620
   1655 H            5.6761    -9.7666     2.3290 H       1      m1     0.0159
   1656 C            4.8544    -7.0447     4.7928 C       1      m1     0.2500
   1657 O            5.1867    -7.8507     5.9725 O       1      m1    -0.4017
   1658 H            6.8065    -8.5130     3.2644 H       1      m1     0.0207
   1659 C            7.1331    -7.8129     2.5002 C       1      m1    -0.0274
   1660 H            7.7445    -9.1904     5.5710 H       1      m1     0.0449
   1661 H            7.6991   -10.4079     3.5070 H       1      m1     0.0176
   1662 C            8.4041    -9.7664     6.0977 C       1      m1    -0.0245
   1663 C            8.4218    -7.2765     2.2031 C       1      m1    -0.0165
   1664 H            8.9468    -7.5381     3.2214 H       1      m1     0.0221
   1665 H           11.1870    -9.0658     4.7553 H       1      m1     0.1011
   1666 C           10.6091    -6.6331     4.1143 C       1      m1     0.0102
   1667 C           11.4425    -8.0575     4.4477 C       1      m1    -0.0176
   1668 C           12.6621    -8.1624     4.9688 C       1      m1     0.0558
   1669 C           13.5207    -6.3782     2.4486 C       1      m1    -0.0175
   1670 C           13.8833    -8.5709     5.5906 C       1      m1     0.0039
   1671 H           13.8722    -9.5272     6.3101 H       1      m1     0.0512
   1672 C           14.7221    -7.1378     3.1609 C       1      m1     0.0028
   1673 C           14.9172    -7.5953     5.7456 C       1      m1     0.0024
   1674 C           15.2442    -6.7781     4.4598 C       1      m1    -0.0067
   1675 C           15.3519    -8.1719     2.2772 C       1      m1    -0.0052
   1676 C          -15.8497    -4.2535     2.3963 C       1      m1    -0.0085
   1677 C          -15.4728    -5.1586     5.9907 C       1      m1    -0.0035
   1678 H          -15.1535    -2.6630     3.8874 H       1      m1     0.0197
   1679 C          -14.0389    -2.6692     3.5506 C       1      m1    -0.0317
   1680 C          -13.0082    -4.0041     3.7706 C       1      m1    -0.0025
   1681 H          -13.6990    -4.7130     3.3591 H       1      m1     0.0220
   1682 C          -12.8780    -3.6268     5.2648 C       1      m1    -0.0072
   1683 C          -12.3161    -4.8937     5.9591 C       1      m1     0.0272
   1684 C          -11.9417    -3.2159     3.1512 C       1      m1    -0.0715
   1685 C          -11.6253    -2.8276     5.4779 C       1      m1    -0.0417
   1686 C          -11.1878    -2.5303     4.0424 C       1      m1     0.2830
   1687 C           -9.5443    -5.2024     2.9896 C       1      m1    -0.0116
   1688 C           -9.2102    -4.1978     2.4583 C       1      m1     0.0201
   1689 H           -8.3151    -3.6007     3.8064 H       1      m1     0.0543
   1690 C           -7.8844    -3.5946     2.8409 C       1      m1    -0.0467
   1691 H           -8.0676    -3.0171     2.0220 H       1      m1     0.0361
   1692 C           -7.0698    -4.8220     2.2031 C       1      m1    -0.0007
   1693 C           -6.9241    -5.9632     5.1332 C       1      m1    -0.0196
   1694 H           -7.5300    -1.9035     3.4742 H       1      m1     0.0494
   1695 C           -6.0605    -5.9423     3.8423 C       1      m1    -0.0050
   1696 H           -5.5828    -3.9461     4.7903 H       1      m1     0.0207
   1697 C           -5.8057    -4.7130     2.6630 C       1      m1    -0.0028
   1698 C           -5.1848    -4.1868     5.9106 C       1      m1    -0.0156
   1699 C           -4.7372    -3.9330     2.4954 C       1      m1    -0.0247
   1700 H           -3.9579    -4.1411     3.3106 H       1      m1     0.0199
   1701 C           -3.7517    -3.8403     5.9002 C       1      m1    -0.0005
   1702 C           -3.7855    -3.0293     4.7565 C       1      m1    -0.0121
   1703 C           -0.5063    -2.7505     4.8995 C       1      m1     0.0074
   1704 C           -0.8076    -3.1185     5.9603 C       1      m1    -0.0031
   1705 H            1.3297    -5.9065     2.7825 H       1      m1     0.0304
   1706 C            5.1661    -2.6540     5.9524 C       1      m1    -0.0059
   1707 C            5.5106    -5.8490     4.5069 C       1      m1    -0.0268
   1708 C            6.1067    -4.8549     4.4413 C       1      m1     0.0399
   1709 C            6.0874    -3.3460     4.8189 C       1      m1     0.0076
   1710 C            6.6877    -2.8392     3.7708 C       1      m1    -0.0050
   1711 H            9.3667    -3.7889     5.5219 H       1      m1     0.0223
   1712 H            8.9370    -4.6514     2.9962 H       1      m1     0.0545
   1713 C            9.5127    -4.4506     3.8523 C       1      m1    -0.0183
   1714 C            9.8423    -3.1776     4.6930 C       1      m1    -0.0132
   1715 C           10.0854    -5.5177     4.1403 C       1      m1    -0.0046
   1716 C           11.0570    -2.5189     4.6459 C       1      m1     0.0000
   1717 H           12.5198    -6.2802     2.9161 H       1      m1     0.0230
   1718 H           12.4780    -4.6013     6.1126 H       1      m1     0.0313
   1719 H           13.2220    -2.8981     2.4697 H       1      m1     0.0311
   1720 C           14.1606    -2.4737     2.5460 C       1      m1    -0.0431
   1721 C           15.8340    -5.4266     4.7749 C       1      m1    -0.0074
   1722 C           15.9391    -4.8784     3.4576 C       1      m1    -0.0091
   1723 C          -15.7188     1.7106     2.4988 C       1      m1    -0.0122
   1724 C          -15.1134     1.1394     3.7819 C       1      m1    -0.0150
   1725 H          -14.8307     0.1404     3.7985 H       1      m1     0.0202
   1726 H          -13.2974    -1.7466     3.5627 H       1      m1     0.0225
   1727 C          -10.4050    -0.0239     5.6708 C       1      m1    -0.0657
   1728 C          -10.3233     1.5177     5.9397 C       1      m1     0.0142
   1729 O           -9.9877    -1.7521     3.8574 O       1      m1    -0.5577
   1730 C           -9.6341    -0.5338     4.7303 C       1      m1     0.2646
   1731 C           -8.4851     0.2312     4.6150 C       1      m1    -0.0658
   1732 C           -8.4331     1.9464     4.3504 C       1      m1    -0.0125
   1733 C           -7.4795    -0.1744     4.0189 C       1      m1     0.0364
   1734 C           -6.6313    -0.9880     3.4662 C       1      m1    -0.0241
   1735 C           -5.5831    -0.7533     2.1272 C       1      m1    -0.0315
   1736 H           -4.4991    -1.0118     2.1549 H       1      m1     0.0319
   1737 C           -4.5677     1.8041     2.6990 C       1      m1    -0.0001
   1738 C           -3.5373     1.0890     3.4677 C       1      m1     0.0020
   1739 C           -3.4065    -1.9566     3.7256 C       1      m1    -0.0083
   1740 C           -3.4766     1.5956     4.7987 C       1      m1    -0.0206
   1741 C           -2.3248     0.4034     3.2811 C       1      m1     0.0013
   1742 H           -2.3940     1.2834     5.1517 H       1      m1     0.0255
   1743 C           -2.1885    -1.2362     3.4689 C       1      m1    -0.0075
   1744 C           -1.1365     1.0171     2.7876 C       1      m1    -0.0304
   1745 C           -0.9361    -1.9374     3.6060 C       1      m1     0.0159
   1746 C           -0.0053     0.2761     2.4427 C       1      m1     0.2332
   1747 C           -0.0671    -0.9806     3.0690 C       1      m1    -0.0752
   1748 H            1.0634    -0.9376     3.2761 H       1      m1     0.0546
   1749 O            1.2238     1.1506     2.0992 O       1      m1    -0.5345
   1750 H            3.0518     0.1184     2.8526 H       1      m1     0.0716
   1751 C            4.1169     0.6833     3.1290 C       1      m1    -0.0138
   1752 C            4.6754     1.4624     5.5833 C       1      m1    -0.0034
   1753 C            4.7587     0.1706     2.0532 C       1      m1    -0.0028
   1754 C            5.2130     0.9852     4.1444 C       1      m1    -0.0003
   1755 C            6.4963     0.8957     3.5890 C       1      m1    -0.0257
   1756 H            6.5082     1.1951     2.5726 H       1      m1     0.0217
   1757 H            7.1486    -0.7211     5.8179 H       1      m1     0.0170
   1758 C            7.5606     0.9462     4.7428 C       1      m1     0.0026
   1759 C            7.6700    -1.9148     3.2519 C       1      m1     0.0169
   1760 C            7.8972     0.1518     5.7886 C       1      m1    -0.0236
   1761 C            8.2986    -1.1243     2.7829 C       1      m1     0.0118
   1762 C            9.6203     2.1122     5.2546 C       1      m1    -0.0087
   1763 H            9.8751     1.7841     4.3213 H       1      m1     0.0259
   1764 C           10.3688     0.7253     2.4234 C       1      m1    -0.0032
   1765 H           10.9611     0.7300     6.4777 H       1      m1     0.0216
   1766 C           11.1793     1.3894     2.8474 C       1      m1    -0.0046
   1767 C           12.1491    -2.0923     4.5352 C       1      m1    -0.0014
   1768 C           13.5653    -1.8182     4.8549 C       1      m1     0.0005
   1769 C           14.3877    -1.6273     3.6597 C       1      m1    -0.0083
   1770 H           15.5835    -1.5408     3.5845 H       1      m1     0.0139
   1771 H          -16.0129     4.6889     2.5686 H       1      m1     0.0255
   1772 H          -15.8128     2.6900     2.2409 H       1      m1     0.0321
   1773 C          -14.4892     2.2938     4.5492 C       1      m1    -0.0003
   1774 C          -14.3385     3.0208     5.8499 C       1      m1    -0.0034
   1775 C          -13.0459     4.0277     5.6731 C       1      m1    -0.0020
   1776 C          -13.1375     2.6484     3.8775 C       1      m1     0.0201
   1777 C          -12.4972     2.1597     2.6082 C       1      m1    -0.0368
   1778 C          -12.1958     3.6495     4.6304 C       1      m1     0.0015
   1779 C          -10.6288     3.5202     4.6507 C       1      m1     0.0009
   1780 C          -10.5907     5.8977     3.2072 C       1      m1    -0.0006
   1781 C          -10.0615     4.7392     4.0642 C       1      m1    -0.0135
   1782 C           -9.7079     2.5335     5.0944 C       1      m1    -0.0088
   1783 H           -8.8539     4.5833     4.4343 H       1      m1     0.0168
   1784 H           -8.1050     2.1951     3.5092 H       1      m1     0.0229
   1785 C           -7.3017     2.4629     5.1301 C       1      m1     0.0007
   1786 C           -6.3051     3.3839     5.1505 C       1      m1    -0.0057
   1787 C           -5.7797     3.9171     3.8151 C       1      m1    -0.0056
   1788 C           -5.2419     3.0627     2.7457 C       1      m1    -0.0014
   1789 C           -4.9408     5.1946     3.8567 C       1      m1    -0.0011
   1790 C           -4.4798     5.7466     2.5588 C       1      m1     0.0063
   1791 C           -4.1904     5.9408     4.9237 C       1      m1    -0.0016
   1792 C           -3.3760     2.9117     5.3102 C       1      m1     0.0024
   1793 C           -2.1864     3.2990     5.7921 C       1      m1    -0.0113
   1794 H           -1.5213     3.2490     3.0674 H       1      m1     0.0270
   1795 C           -0.8020     2.3473     2.4482 C       1      m1    -0.0635
   1796 H           -0.1655     2.4293     6.0467 H       1      m1     0.0506
   1797 C            0.1651     4.3551     5.9341 C       1      m1    -0.0142
   1798 C            0.5182     2.4491     2.1645 C       1      m1     0.2512
   1799 H            1.2108     5.7038     1.7846 H       1      m1     0.0181
   1800 H            0.9384     3.9790     5.1832 H       1      m1     0.0231
   1801 C            1.1745     3.7011     2.3610 C       1      m1    -0.0512
   1802 H            2.1884     5.9056     3.7544 H       1      m1     0.0164
   1803 H            2.2328     5.6911     5.6223 H       1      m1     0.0165
   1804 C            2.6870     3.7992     2.2371 C       1      m1    -0.0131
   1805 C            3.1959     5.9533     3.2214 C       1      m1    -0.0206
   1806 H            2.8395     2.6503     2.4237 H       1      m1     0.0636
   1807 H            3.5982     4.7700     6.1209 H       1      m1     0.0200
   1808 C            3.7080     4.6704     2.7124 C       1      m1    -0.0013
   1809 C            3.6049     3.6184     6.3062 C       1      m1    -0.0103
   1810 C            4.0849     2.7438     5.2937 C       1      m1    -0.0081
   1811 H            4.6028     3.0481     4.2105 H       1      m1     0.0200
   1812 C            5.2940     4.6102     2.7417 C       1      m1    -0.0055
   1813 C            6.2727     5.0198     3.7185 C       1      m1     0.0021
   1814 C            6.7030     4.6147     5.0710 C       1      m1    -0.0018
   1815 C            7.2665     6.1120     3.0711 C       1      m1    -0.0124
   1816 C            7.4393     3.3831     4.8366 C       1      m1    -0.0006
   1817 C            7.7882     5.5453     5.3851 C       1      m1    -0.0170
   1818 C            8.0161     2.3347     4.5334 C       1      m1    -0.0061
   1819 C            9.1730     5.3686     2.3923 C       1      m1     0.0052
   1820 H           10.0381     4.1023     4.6454 H       1      m1     0.0244
   1821 C           10.4900     3.3382     5.2158 C       1      m1    -0.0383
   1822 C           12.0409     2.8361     4.6623 C       1      m1     0.0045
   1823 C           12.2611     2.2928     3.1517 C       1      m1    -0.0029
   1824 C           12.5432     1.9497     5.9502 C       1      m1    -0.0037
   1825 C           12.7098     4.2000     4.5055 C       1      m1    -0.0031
   1826 C           12.7156     5.5017     3.9073 C       1      m1    -0.0042
   1827 C           13.3012     2.8631     2.6161 C       1      m1    -0.0093
   1828 C           13.0831     5.8420     2.5249 C       1      m1    -0.0052
   1829 C           13.9328     4.5587     5.5800 C       1      m1    -0.0007
   1830 C           14.1211     3.6501     2.4134 C       1      m1     0.0020
   1831 C           14.5216     5.8629     5.6914 C       1      m1     0.0039
   1832 C           15.1734     4.5085     2.1232 C       1      m1    -0.0216
   1833 H          -15.1335     9.6568     3.3916 H       1      m1     0.0110
   1834 H          -14.6298     9.3164     5.8787 H       1      m1     0.0151
   1835 H          -14.3027     8.0117     4.7626 H       1      m1     0.0136
   1836 C          -13.9024     9.6891     2.8882 C       1      m1    -0.0169
   1837 H          -13.9650     6.7417     6.5388 H       1      m1     0.0179
   1838 C          -13.2580     7.8988     4.3818 C       1      m1    -0.0198
   1839 C          -12.7752     8.7621     3.2442 C       1      m1     0.0020
   1840 C          -12.2143     6.9762     4.8532 C       1      m1     0.0067
   1841 H          -11.4894    10.3981     2.2842 H       1      m1     0.0230
   1842 C          -11.2919     8.6083     3.2039 C       1      m1     0.0018
   1843 C          -10.8434     9.5646     2.3663 C       1      m1    -0.0180
   1844 C          -10.7776     7.3191     5.0437 C       1      m1    -0.0048
   1845 C          -10.1549     7.3886     3.6728 C       1      m1     0.0020
   1846 C          -10.0724     8.4082     5.8057 C       1      m1     0.0052
   1847 C           -8.7282     8.8910     5.5412 C       1      m1    -0.0251
   1848 C           -8.7295     7.6830     3.4337 C       1      m1    -0.0260
   1849 H           -8.3867     9.5522     5.9320 H       1      m1     0.0266
   1850 H           -8.4996     7.1239     2.7060 H       1      m1     0.0211
   1851 C           -8.0976     8.6158     4.2678 C       1      m1     0.0080
   1852 C           -6.4975     9.0291     4.0589 C       1      m1    -0.0293
   1853 H           -6.3199     8.9478     2.9351 H       1      m1     0.0178
   1854 C           -5.7429     8.6842     4.8664 C       1      m1     0.0061
   1855 C           -4.6774     8.4172     5.7232 C       1      m1    -0.0039
   1856 C           -3.4821     7.0554     4.3958 C       1      m1    -0.0000
   1857 C           -3.2772     7.8852     5.6631 C       1      m1    -0.0034
   1858 C           -2.6821     7.3435     3.2010 C       1      m1    -0.0029
   1859 C           -1.6832     8.3234     3.3307 C       1      m1    -0.0063
   1860 C           -0.6986     9.0301     3.8152 C       1      m1    -0.0186
   1861 C           -0.2232     8.5713     5.1976 C       1      m1     0.0029
   1862 H           -0.4677     9.5077     2.7310 H       1      m1     0.0146
   1863 C            1.1471     9.1111     5.1085 C       1      m1    -0.0255
   1864 H            2.1393     8.6086     5.1048 H       1      m1     0.0164
   1865 H            3.5364    10.1177     4.6690 H       1      m1     0.0186
   1866 C            3.9916     6.9846     3.9733 C       1      m1    -0.0070
   1867 C            4.5015     7.7876     4.8415 C       1      m1    -0.0099
   1868 C            5.0263     8.5959     5.7371 C       1      m1    -0.0049
   1869 C            5.7944     9.7091     5.2796 C       1      m1    -0.0038
   1870 C            6.8430     9.7601     5.9645 C       1      m1    -0.0028
   1871 H            6.7094     6.9659     3.5128 H       1      m1     0.0168
   1872 H            7.2810     6.4814     5.2436 H       1      m1     0.0208
   1873 C            8.7223     6.3383     3.1142 C       1      m1    -0.0220
   1874 H            9.2310     7.2502     2.8729 H       1      m1     0.0171
   1875 H            9.5491     7.2837     6.0277 H       1      m1     0.0187
   1876 H            9.9346     8.6445     2.8386 H       1      m1     0.0166
   1877 C           10.7012     8.4340     2.2685 C       1      m1    -0.0223
   1878 C           12.1367     7.9918     2.6809 C       1      m1    -0.0125
   1879 C           12.6222     7.7642     4.3352 C       1      m1    -0.0089
   1880 H           12.8787     8.7239     2.8574 H       1      m1     0.0235
   1881 C           12.6704     8.8355     5.1317 C       1      m1    -0.0067
   1882 C           12.6548     9.5063     6.1238 C       1      m1    -0.0051
   1883 C           13.5502     6.6401     4.6658 C       1      m1    -0.0168
   1884 H           14.2503     6.9110     3.8880 H       1      m1     0.0167
   1885 H          -15.6276    14.3158     3.1439 H       1      m1     0.0202
   1886 C          -13.8021    10.8579     2.3940 C       1      m1    -0.0058
   1887 C          -13.0574    14.1366     5.5749 C       1      m1     0.0139
   1888 C          -12.2633    13.9123     4.4169 C       1      m1    -0.0057
   1889 C          -12.1346    12.0720     5.6781 C       1      m1    -0.0218
   1890 C          -12.0480    13.9783     2.1810 C       1      m1     0.0019
   1891 H          -12.3475    11.0671     5.8784 H       1      m1     0.0232
   1892 C          -11.4091    12.7371     4.6037 C       1      m1     0.0041
   1893 C          -10.6469    13.4459     2.3978 C       1      m1    -0.0031
   1894 C          -10.3394    12.6991     3.4589 C       1      m1    -0.0026
   1895 C           -9.0393    13.0213     3.6729 C       1      m1    -0.0020
   1896 C           -8.5004    12.3275     5.0491 C       1      m1    -0.0127
   1897 H           -8.6694    10.7796     2.4713 H       1      m1     0.0207
   1898 C           -8.5271    13.8350     2.7513 C       1      m1     0.0001
   1899 C           -8.3632    13.6561     5.5654 C       1      m1    -0.0038
   1900 C           -7.2121   -14.4402     2.9902 C       1      m1    -0.0386
   1901 H           -6.7104    14.0976     3.8325 H       1      m1     0.0220
   1902 H           -6.6186    10.2827     6.0394 H       1      m1     0.0206
   1903 H           -6.3489    12.5621     3.2698 H       1      m1     0.0200
   1904 C           -6.1105    11.7169     2.4942 C       1      m1    -0.0390
   1905 H           -5.6833    10.7613     2.8399 H       1      m1     0.0221
   1906 H           -2.5442    11.5188     2.8958 H       1      m1     0.0167
   1907 H           -1.0485    12.2480     5.0866 H       1      m1     0.0154
   1908 C           -0.2779    14.2249     4.9230 C       1      m1    -0.0023
   1909 C            0.0094    12.6432     4.6141 C       1      m1    -0.0146
   1910 C            0.6461    12.7369     2.9855 C       1      m1    -0.0103
   1911 C            1.0978    11.8503     5.4810 C       1      m1    -0.0089
   1912 C            1.1507    10.5547     5.2063 C       1      m1    -0.0048
   1913 H            0.7669    11.5211     3.4828 H       1      m1     0.0182
   1914 C            2.0626    12.7906     2.5995 C       1      m1     0.0267
   1915 C            2.5253    12.1733     5.2255 C       1      m1     0.0072
   1916 C            2.8213    13.0771     3.7987 C       1      m1    -0.0642
   1917 C            3.3701    13.0534     6.1021 C       1      m1     0.0076
   1918 C            3.6647    10.8568     5.6638 C       1      m1    -0.0300
   1919 C            3.8012    13.9410     3.8537 C       1      m1     0.2564
   1920 C            4.3317    13.8208     5.0551 C       1      m1    -0.0553
   1921 H            4.4240    11.5261     2.7940 H       1      m1     0.0302
   1922 C            5.0236    11.0603     5.0779 C       1      m1     0.0019
   1923 H            5.8682    12.7835     5.9428 H       1      m1     0.0303
   1924 C            5.9817    12.2545     5.0236 C       1      m1    -0.0200
   1925 C            6.4590    12.3591     3.9086 C       1      m1     0.0124
   1926 C            6.9635    12.1096     2.5529 C       1      m1    -0.0117
   1927 C            9.4544    12.2947     5.3851 C       1      m1    -0.0374
   1928 H            9.5316    13.4015     4.8534 H       1      m1     0.0165
   1929 H            9.6487    11.5967     4.4231 H       1      m1     0.0173
   1930 C           11.1158    14.4170     2.7735 C       1      m1    -0.0022
   1931 H           11.2330    14.2200     6.0283 H       1      m1     0.0158
   1932 C           11.5803    13.3888     3.4019 C       1      m1    -0.0078
   1933 C           12.3226    12.2919     4.0074 C       1      m1    -0.0219
   1934 H           12.1389    11.1231     3.6742 H       1      m1     0.0159
   1935 H           13.5943    12.2892     2.2492 H       1      m1     0.0238
   1936 C           13.3479    12.7896     4.8418 C       1      m1    -0.0128
   1937 C           13.6827    14.0085     5.1963 C       1      m1    -0.0040
   1938 H           14.4625    12.3642     4.6783 H       1      m1     0.0147
   1939 C          -15.6861   -13.1466     7.1010 C       1      m1     0.2093
   1940 C          -15.0746   -14.4270     9.1752 C       1      m1    -0.0134
   1941 C          -14.6391   -14.0848     6.8912 C       1      m1    -0.0399
   1942 H          -14.3950   -13.8311     9.9506 H       1      m1     0.0202
   1943 H          -13.8376   -10.5598     9.8480 H       1      m1     0.0159
   1944 H          -13.5301   -11.6881     8.1888 H       1      m1     0.0354
   1945 C          -12.5946   -11.4694     8.5333 C       1      m1    -0.0149
   1946 C          -12.8036   -11.0183     9.8191 C       1      m1    -0.0086
   1947 H          -11.9954    14.1202    10.4272 H       1      m1     0.0151
   1948 C          -11.5073   -12.1523     8.3064 C       1      m1     0.0106
   1949 C          -10.5177   -12.8810     8.1449 C       1      m1    -0.0197
   1950 C          -10.3235   -14.3797     8.5770 C       1      m1    -0.0321
   1951 H           -9.7859   -12.2996     7.4224 H       1      m1     0.0188
   1952 H           -9.7457   -10.9621     9.8435 H       1      m1     0.0236
   1953 H           -8.3922   -10.5541     7.7860 H       1      m1     0.0166
   1954 H           -6.5981   -11.4132     9.2144 H       1      m1     0.0378
   1955 C           -6.4319   -14.1703     7.2106 C       1      m1     0.0001
   1956 C           -6.1064   -12.8754     6.4279 C       1      m1    -0.0010
   1957 C           -6.2524   -10.7640    10.0078 C       1      m1    -0.0677
   1958 H           -5.1525   -11.1941     6.8136 H       1      m1     0.0342
   1959 O           -4.0722   -12.2946     9.9456 O       1      m1    -0.5134
   1960 C           -4.0269   -14.0589     7.9392 C       1      m1     0.0452
   1961 C           -3.9131   -12.9575     7.0699 C       1      m1     0.0232
   1962 C           -2.5553   -12.2122     7.0848 C       1      m1    -0.0034
   1963 H           -2.0930   -11.7224     6.1115 H       1      m1     0.0102
   1964 C           -1.5139   -14.0595     8.6000 C       1      m1    -0.0136
   1965 C           -1.6657   -12.7417     8.0744 C       1      m1     0.0375
   1966 H           -0.8200   -14.5131     9.2043 H       1      m1     0.0298
   1967 H           -1.1601   -10.6375     8.8771 H       1      m1     0.0271
   1968 C           -0.6558   -11.7165     9.0107 C       1      m1    -0.0341
   1969 H            0.3421   -11.9374     8.7166 H       1      m1     0.0172
   1970 C            1.5437   -13.1704     9.5598 C       1      m1    -0.0082
   1971 H            1.8569   -10.7518     9.0090 H       1      m1     0.0181
   1972 C            2.1558   -13.6264     8.5792 C       1      m1    -0.0118
   1973 C            2.8401   -14.1246     7.4558 C       1      m1    -0.0130
   1974 H            3.2275   -13.1083     7.2864 H       1      m1     0.0160
   1975 H            4.9207   -11.3911     9.8702 H       1      m1     0.0126
   1976 H            5.1780   -11.7338     8.1577 H       1      m1     0.0190
   1977 C            5.5097   -11.0778     9.0656 C       1      m1    -0.0417
   1978 H            5.4490   -13.5711     9.4024 H       1      m1     0.0161
   1979 C            6.6342   -13.6849     9.2646 C       1      m1    -0.0331
   1980 C            7.0324   -11.1848     9.3115 C       1      m1     0.0161
   1981 C            7.1731   -14.0615     7.1183 C       1      m1    -0.0030
   1982 H            7.2100   -11.9351     6.5560 H       1      m1     0.0221
   1983 C            7.5645   -12.3470     8.9899 C       1      m1    -0.0164
   1984 C            7.6839   -12.6732     7.3035 C       1      m1    -0.0137
   1985 H            8.7510   -12.1100     9.3017 H       1      m1     0.0276
   1986 C            9.1479   -12.7447     6.8761 C       1      m1     0.0100
   1987 C           10.1887   -12.8062     7.9392 C       1      m1    -0.0652
   1988 C           10.5809   -11.9307     8.9342 C       1      m1     0.2601
   1989 O           10.6176   -10.4716     8.9826 O       1      m1    -0.5185
   1990 C           11.0163   -13.8794     8.0019 C       1      m1     0.0023
   1991 C           11.2353   -14.1671     9.5535 C       1      m1     0.0102
   1992 C           11.2614   -12.7351     9.6214 C       1      m1    -0.0666
   1993 C           12.2296   -11.7171    10.0519 C       1      m1    -0.0415
   1994 C           11.9598   -10.4782     9.4999 C       1      m1     0.2761
   1995 H           14.3416   -12.3307     6.8233 H       1      m1     0.0611
   1996 C           14.5161   -12.8423    10.2527 C       1      m1    -0.0144
   1997 C           15.2002   -12.2000     8.9727 C       1      m1     0.0186
   1998 C           15.3517   -10.6833     9.0652 C       1      m1     0.0013
   1999 C          -16.0008   -13.1061     8.4213 C       1      m1    -0.0520
   2000 C          -16.0079    -8.2080     6.3530 C       1      m1     0.0011
   2001 H          -15.7998    -8.8009     7.3312 H       1      m1     0.0334
   2002 H          -15.6814    -8.9985     9.3498 H       1      m1     0.0161
   2003 C          -14.7488    -7.4145     6.5271 C       1      m1    -0.0096
   2004 C          -13.5410    -8.1368     6.9762 C       1      m1    -0.0485
   2005 H          -13.5209    -9.4041     7.2870 H       1      m1     0.0481
   2006 C          -12.8306    -7.0769     7.2772 C       1      m1     0.1954
   2007 O          -11.4761    -7.0439     8.2843 O       1      m1    -0.4771
   2008 C           -9.0903   -10.1294     9.7943 C       1      m1    -0.0131
   2009 C           -8.5770    -9.9050     8.5968 C       1      m1    -0.0051
   2010 C           -7.8482    -8.6454     8.4271 C       1      m1     0.0108
   2011 C           -7.8680    -7.8028     9.5283 C       1      m1     0.0075
   2012 H           -7.2899    -9.4954     6.8920 H       1      m1     0.0211
   2013 C           -6.6421    -8.7557     7.4583 C       1      m1    -0.0203
   2014 C           -6.6017    -7.0722     9.9125 C       1      m1    -0.0167
   2015 C           -6.2500    -7.5420     7.0222 C       1      m1    -0.0007
   2016 C           -5.4936    -9.6795     9.8657 C       1      m1     0.0181
   2017 C           -4.7458    -9.1488     8.7160 C       1      m1    -0.0115
   2018 H           -5.4090    -8.3728     8.6609 H       1      m1     0.0249
   2019 C           -4.0366    -9.3130     6.3387 C       1      m1    -0.0025
   2020 C           -3.6500    -9.5854     7.7879 C       1      m1     0.0205
   2021 H           -2.6345    -5.9267     6.8311 H       1      m1     0.0244
   2022 C           -1.8116    -6.4213     7.3387 C       1      m1    -0.0194
   2023 C           -0.6025    -6.8363     6.5685 C       1      m1     0.0034
   2024 C            0.4267    -6.3494     8.6808 C       1      m1    -0.0251
   2025 C            0.4127    -7.5990     9.6871 C       1      m1     0.0033
   2026 C            0.5579    -6.9635     7.2677 C       1      m1     0.0207
   2027 H            0.7024    -9.7374     7.7881 H       1      m1     0.0127
   2028 C            1.3940    -8.7852     9.8975 C       1      m1     0.0195
   2029 C            1.3358    -9.8571     8.8364 C       1      m1    -0.0415
   2030 C            2.0356    -7.3652     6.7520 C       1      m1    -0.0214
   2031 C            2.6640    -8.1732     7.5615 C       1      m1     0.0652
   2032 C            2.8223    -9.3813     8.4262 C       1      m1    -0.0291
   2033 H            3.5000   -10.1098     7.9216 H       1      m1     0.0264
   2034 C            3.9749    -8.9594     9.3954 C       1      m1     0.0348
   2035 C            5.2797    -9.4330     9.2555 C       1      m1     0.0077
   2036 C            6.5628    -9.0338     9.6004 C       1      m1     0.0370
   2037 C            7.1374   -10.0786    10.3516 C       1      m1    -0.0055
   2038 H            7.9187    -7.5753     7.3490 H       1      m1     0.0711
   2039 C            8.9869    -7.6676     6.9704 C       1      m1    -0.0561
   2040 C            9.3553    -8.9371     6.7505 C       1      m1     0.0649
   2041 C            9.8933    -6.5856     7.3398 C       1      m1     0.2328
   2042 H           10.5179    -8.8646     6.4065 H       1      m1     0.0916
   2043 O           11.3397    -7.0248     7.1950 O       1      m1    -0.5051
   2044 H           13.0320    -8.6316     8.9168 H       1      m1     0.0697
   2045 C           13.0447    -9.5235     9.5789 C       1      m1    -0.0759
   2046 C           14.5262    -9.7346     9.7460 C       1      m1     0.0024
   2047 C           14.7039    -7.2249     9.7975 C       1      m1    -0.0018
   2048 C           15.3901    -8.4696     9.5178 C       1      m1    -0.0236
   2049 C          -15.8117    -4.2976     8.2137 C       1      m1    -0.0160
   2050 H          -14.6452    -4.6440     8.1828 H       1      m1     0.0254
   2051 C          -15.1102    -3.7010     6.2089 C       1      m1    -0.0066
   2052 C          -15.1341    -2.2442    10.3264 C       1      m1    -0.0135
   2053 C          -14.4602    -5.9604     6.2127 C       1      m1    -0.0004
   2054 C          -13.8836    -3.0380     6.1579 C       1      m1    -0.0011
   2055 C          -13.2835    -2.2399     7.0554 C       1      m1    -0.0027
   2056 C          -13.2315    -5.7857     6.6678 C       1      m1    -0.0435
   2057 C          -12.4647    -4.0535     9.4594 C       1      m1    -0.0190
   2058 H          -11.9894    -4.4523     8.6266 H       1      m1     0.0341
   2059 C          -11.8184    -2.8122    10.0348 C       1      m1     0.0019
   2060 C          -11.1715    -4.7501     6.9231 C       1      m1    -0.0653
   2061 C          -10.7107    -5.8910     7.8034 C       1      m1     0.2326
   2062 C          -10.6552    -3.3899     6.6377 C       1      m1     0.0285
   2063 C          -10.2066    -3.0410     9.9265 C       1      m1    -0.0009
   2064 C           -9.6714    -3.0395     8.7391 C       1      m1    -0.0103
   2065 H           -9.5922    -5.7303     8.0492 H       1      m1    -0.0075
   2066 C           -9.4495    -2.9065     7.4144 C       1      m1    -0.0170
   2067 H           -8.8740    -3.7344     6.9700 H       1      m1     0.0231
   2068 H           -6.6592    -2.8194     9.0865 H       1      m1     0.0169
   2069 C           -6.2929    -6.4355     6.4280 C       1      m1    -0.0007
   2070 C           -5.6128    -2.1040     9.6912 C       1      m1    -0.0179
   2071 C           -5.4679    -5.1822     6.9370 C       1      m1     0.0027
   2072 H           -5.5900    -5.5941     8.8077 H       1      m1     0.0204
   2073 C           -5.1353    -4.6942     8.3391 C       1      m1    -0.0244
   2074 C           -3.5759    -4.5532     8.1040 C       1      m1     0.0012
   2075 C           -2.9553    -4.6523     9.4358 C       1      m1    -0.0217
   2076 C           -2.9374    -3.6551     7.1770 C       1      m1    -0.0060
   2077 C           -1.9865    -5.5649     9.6572 C       1      m1    -0.0074
   2078 C           -1.3155    -3.4980     7.1666 C       1      m1    -0.0025
   2079 C           -1.1584    -6.0518     8.5594 C       1      m1     0.0009
   2080 H           -1.0019    -3.8054     9.1998 H       1      m1     0.0224
   2081 C           -0.4628    -3.6280     8.3264 C       1      m1    -0.0099
   2082 C            0.8477    -3.0217     8.3953 C       1      m1    -0.0529
   2083 H            0.9491    -5.6823     8.9133 H       1      m1     0.0584
   2084 C            1.6506    -3.1782     7.0497 C       1      m1     0.3699
   2085 O            2.3735    -3.9983     6.5552 O       1      m1    -0.4992
   2086 H            4.8578    -3.5240     6.7436 H       1      m1     0.1274
   2087 H            5.0674    -4.3645     9.7358 H       1      m1     0.0562
   2088 O            5.8476    -4.9411     8.1295 O       1      m1    -0.4440
   2089 C            6.0746    -4.6905     9.3417 C       1      m1     0.3019
   2090 C            7.4751    -3.9807     9.7840 C       1      m1    -0.0245
   2091 H            7.7282    -2.8763     7.3088 H       1      m1     0.0354
   2092 C            8.0673    -2.8604     9.2639 C       1      m1     0.0535
   2093 H            8.8158    -5.1574     8.4909 H       1      m1     0.0413
   2094 C            9.4772    -2.1943     9.4822 C       1      m1    -0.0016
   2095 C            9.6753    -5.3026     7.8551 C       1      m1    -0.0613
   2096 C           10.4614    -3.0467    10.1611 C       1      m1    -0.0033
   2097 C           10.9724    -4.6352     7.7984 C       1      m1    -0.0865
   2098 H           10.9143    -3.5665     7.7678 H       1      m1     0.0277
   2099 C           11.7751    -5.6375     7.6803 C       1      m1     0.2318
   2100 H           12.9101    -3.1877     8.0259 H       1      m1     0.0157
   2101 C           12.9922    -5.0605     6.9294 C       1      m1    -0.0729
   2102 C           13.7684    -3.8761     7.8007 C       1      m1    -0.0152
   2103 H           13.6996    -5.7917     6.6068 H       1      m1     0.0470
   2104 C           14.6970    -3.0595     6.8827 C       1      m1    -0.0010
   2105 C           15.0565    -6.1453     8.9842 C       1      m1     0.0060
   2106 C           14.9405    -4.8501     8.4568 C       1      m1     0.0037
   2107 C           16.0100    -3.4043     7.1495 C       1      m1    -0.0006
   2108 H          -16.0018    -2.4714     9.3977 H       1      m1     0.0208
   2109 H          -15.1853    -0.1459     8.9698 H       1      m1     0.0172
   2110 C          -15.0429     0.9494     6.9846 C       1      m1     0.0039
   2111 C          -14.3933    -0.1811     8.0406 C       1      m1    -0.0169
   2112 C          -14.1074    -1.5398     7.9967 C       1      m1    -0.0023
   2113 C          -14.0491    -2.0204     9.2817 C       1      m1    -0.0034
   2114 C          -13.1815     1.9295     8.9042 C       1      m1    -0.0047
   2115 C          -13.1628     0.6937     8.2715 C       1      m1     0.0010
   2116 C          -12.6300    -1.6931     9.8120 C       1      m1    -0.0009
   2117 C          -12.3261    -1.6249     6.1850 C       1      m1     0.0009
   2118 C          -11.6968     0.1289     7.7390 C       1      m1    -0.0032
   2119 C          -11.4591    -0.6351     6.5449 C       1      m1     0.0212
   2120 C          -10.9756    -0.0179    10.2007 C       1      m1    -0.0010
   2121 C          -10.5853     0.2132     8.8309 C       1      m1     0.0007
   2122 C          -10.3794     1.8950     7.3600 C       1      m1    -0.0176
   2123 C           -9.6439     1.2409     8.3541 C       1      m1     0.0005
   2124 H           -8.9305    -0.9031    10.1286 H       1      m1     0.0237
   2125 C           -8.6942     1.3876     9.4771 C       1      m1    -0.0081
   2126 H           -7.2781     0.8912     6.6906 H       1      m1     0.0245
   2127 C           -7.4080     1.7417     8.9220 C       1      m1    -0.0051
   2128 C           -7.5769     1.8743     6.5198 C       1      m1    -0.0319
   2129 C           -5.9088    -1.3441     8.6925 C       1      m1    -0.0017
   2130 H           -5.7750     0.5270     7.1359 H       1      m1     0.0195
   2131 C           -5.2990    -0.1123     7.9610 C       1      m1    -0.0201
   2132 H           -5.0650     1.3303    10.5001 H       1      m1     0.0184
   2133 C           -4.3413     0.9268     9.9572 C       1      m1    -0.0140
   2134 C           -4.0523     0.0166     8.7066 C       1      m1     0.0083
   2135 C           -2.7725    -0.4799     8.3572 C       1      m1    -0.0003
   2136 H           -2.5787    -0.7422     7.3650 H       1      m1     0.0231
   2137 C           -1.8766     0.2061     9.4057 C       1      m1    -0.0440
   2138 C           -0.6642     1.0968     9.6448 C       1      m1     0.2977
   2139 O            0.0264     1.7947     8.8490 O       1      m1    -0.4826
   2140 C            0.6820    -1.3156    10.0056 C       1      m1     0.0109
   2141 C            1.4606    -1.8829     8.9396 C       1      m1    -0.0020
   2142 H            1.3378    -2.1584     6.7331 H       1      m1    -0.0303
   2143 H            2.5643    -1.4572     8.8735 H       1      m1     0.0336
   2144 C            3.4716     1.5472     9.1710 C       1      m1    -0.0137
   2145 C            3.7051     1.7771     7.7635 C       1      m1     0.0112
   2146 H            3.4247     0.5565     9.5593 H       1      m1     0.0321
   2147 C            4.1550     0.7721     6.7134 C       1      m1     0.0029
   2148 C            4.6072    -0.5905     7.2126 C       1      m1    -0.0074
   2149 C            4.9105    -1.5569     6.2903 C       1      m1     0.0055
   2150 C            5.4060    -0.6944     8.7260 C       1      m1     0.0305
   2151 C            5.7721     0.4356     9.5941 C       1      m1    -0.0512
   2152 H            6.3137     2.2441     8.2512 H       1      m1     0.0194
   2153 C            6.4892    -1.3362     8.2492 C       1      m1     0.0173
   2154 C            6.6214     1.5445     9.0032 C       1      m1    -0.0206
   2155 C            7.7877    -1.8992     7.9413 C       1      m1    -0.0273
   2156 C            7.9554     1.8601     9.2651 C       1      m1    -0.0200
   2157 C            8.9181     0.1604     6.8337 C       1      m1    -0.0018
   2158 C            8.9921    -0.8370     7.7829 C       1      m1    -0.0038
   2159 C            9.7151    -0.9517     8.8704 C       1      m1    -0.0165
   2160 C           10.0986     1.2952     6.5620 C       1      m1    -0.0366
   2161 H           10.6343    -0.3328     9.0144 H       1      m1     0.0145
   2162 H           11.8497     1.6128     7.9185 H       1      m1     0.0129
   2163 C           14.3276    -1.8443     6.2778 C       1      m1    -0.0060
   2164 C           15.1611    -0.7567     6.4162 C       1      m1    -0.0033
   2165 H           15.0464     1.3224     6.1896 H       1      m1     0.0227
   2166 C           15.8208     0.5760     6.4719 C       1      m1    -0.0212
   2167 C          -15.2266     3.4495     8.1768 C       1      m1     0.0019
   2168 H          -15.0872     5.6197     8.9350 H       1      m1     0.0257
   2169 C          -14.8109     2.4712     7.0166 C       1      m1    -0.0046
   2170 C          -14.6595     4.7337     8.5712 C       1      m1    -0.0204
   2171 C          -13.1907     4.7314     8.0788 C       1      m1     0.0048
   2172 C          -12.6542     5.1514     6.6152 C       1      m1    -0.0174
   2173 C          -12.6175     3.1062     9.8115 C       1      m1     0.0070
   2174 C          -12.1827     4.0680     8.7737 C       1      m1    -0.0184
   2175 H          -11.4789     5.3080     6.7982 H       1      m1     0.0175
   2176 H          -11.0767     4.2268     8.3558 H       1      m1     0.0168
   2177 H          -10.1499     2.9767     7.2649 H       1      m1     0.0168
   2178 C           -8.7847     4.3327     9.2044 C       1      m1    -0.0010
   2179 H           -8.4557     2.2164     7.2350 H       1      m1     0.0229
   2180 C           -8.5022     5.1701     8.2184 C       1      m1    -0.0210
   2181 H           -7.9946     4.6940     7.4536 H       1      m1     0.0202
   2182 C           -6.3241     2.4206     7.1757 C       1      m1    -0.0004
   2183 C           -6.1673     2.4226     8.5291 C       1      m1    -0.0259
   2184 C           -5.6892     3.4966     6.4188 C       1      m1    -0.0042
   2185 H           -5.3463     2.8007     9.0624 H       1      m1     0.0198
   2186 C           -4.9436     5.7048     7.2752 C       1      m1    -0.0156
   2187 C           -4.8130     5.3654     8.6956 C       1      m1    -0.0041
   2188 C           -4.1524     3.7578     6.4591 C       1      m1     0.0037
   2189 C           -4.1667     5.2215     6.2132 C       1      m1    -0.0006
   2190 H           -4.0533     2.1508     7.9905 H       1      m1     0.0225
   2191 C           -3.9304     4.1919     8.9898 C       1      m1    -0.0010
   2192 C           -3.4787     3.3139     7.9414 C       1      m1    -0.0373
   2193 C           -2.7153     4.7991     9.7997 C       1      m1    -0.0206
   2194 H           -2.4803     3.1338     8.0136 H       1      m1     0.0463
   2195 H           -1.7005     4.6007     9.2493 H       1      m1     0.0302
   2196 C           -1.0119     3.5000     6.2998 C       1      m1     0.0152
   2197 C            0.1464     5.7525     6.4949 C       1      m1     0.0103
   2198 H            0.2379     5.1205     9.2879 H       1      m1     0.0412
   2199 C            1.6156     6.0185     6.4763 C       1      m1    -0.0191
   2200 C            3.0579     2.7675     9.7105 C       1      m1     0.0342
   2201 C            3.8679     3.7179     8.7163 C       1      m1    -0.0015
   2202 C            3.7234     2.9656     7.5329 C       1      m1     0.0085
   2203 H            4.6835     4.4312    10.0097 H       1      m1     0.0285
   2204 C            4.9079     4.5873     8.8616 C       1      m1    -0.0150
   2205 C            5.9038     4.7126     7.8397 C       1      m1    -0.0021
   2206 C            7.4063     4.6381     7.6938 C       1      m1    -0.0245
   2207 H            7.8094     4.2513     8.6496 H       1      m1     0.0166
   2208 C            8.3800     5.3021     6.6539 C       1      m1     0.0034
   2209 H            8.5588     2.7036     8.9225 H       1      m1     0.0151
   2210 H            9.9931     1.6401     7.5801 H       1      m1     0.0189
   2211 H           10.2468     3.6118     6.1354 H       1      m1     0.0218
   2212 C           10.6500     6.1255     9.5467 C       1      m1     0.0229
   2213 C           10.8258     6.0751     7.0850 C       1      m1    -0.0355
   2214 H           10.6232     4.8745     6.6567 H       1      m1     0.0174
   2215 H           12.0496     3.4088     7.3575 H       1      m1     0.0283
   2216 C           12.4044     2.5648     7.3027 C       1      m1    -0.0390
   2217 H           12.8257     2.8343     9.1567 H       1      m1     0.0236
   2218 C           13.2961     2.9348    10.0266 C       1      m1    -0.0070
   2219 C           14.1800     2.7707     7.6648 C       1      m1    -0.0026
   2220 C           14.3282     3.6135     6.6507 C       1      m1    -0.0008
   2221 H           14.6150     6.3176     8.0807 H       1      m1     0.0559
   2222 C           14.6425     3.0235     9.8345 C       1      m1    -0.0105
   2223 C           15.2444     3.0819     8.5246 C       1      m1     0.0007
   2224 H           15.9492     6.6936     7.1090 H       1      m1     0.0217
   2225 C          -14.6329     9.4280    10.0568 C       1      m1     0.0067
   2226 C          -14.5911     9.4387     6.9341 C       1      m1    -0.0228
   2227 C          -13.7869     8.4564     7.7342 C       1      m1     0.0002
   2228 C          -13.6333     9.0729     9.1047 C       1      m1    -0.0017
   2229 C          -12.8066     6.6912     6.2665 C       1      m1    -0.0169
   2230 C          -12.6469     8.0016     7.0492 C       1      m1    -0.0047
   2231 C          -12.2912     9.5243     8.7404 C       1      m1    -0.0020
   2232 C          -11.7553     8.8901     7.7055 C       1      m1    -0.0006
   2233 C          -10.4635     9.0516     7.0520 C       1      m1     0.0011
   2234 H          -10.0676     6.7056     7.9360 H       1      m1     0.0229
   2235 C           -9.6470     8.4599    10.2682 C       1      m1    -0.0040
   2236 C           -9.1295     6.4687     7.8504 C       1      m1    -0.0158
   2237 C           -8.7875     8.9131     9.1187 C       1      m1     0.0081
   2238 C           -8.1991     7.4857     8.4637 C       1      m1    -0.0119
   2239 C           -8.3621    10.2250     8.2234 C       1      m1    -0.0191
   2240 C           -7.3680     8.9546    10.1925 C       1      m1    -0.0378
   2241 H           -7.0237     7.3325     8.6866 H       1      m1     0.0169
   2242 H           -6.8838     8.0608    10.0013 H       1      m1     0.0247
   2243 C           -6.8210     9.9646     8.0299 C       1      m1     0.0027
   2244 C           -6.2125     9.7352     9.4657 C       1      m1    -0.0030
   2245 C           -6.1732    10.0088     6.8955 C       1      m1    -0.0218
   2246 H           -5.2706     6.6592     6.5110 H       1      m1     0.0227
   2247 C           -5.0954    10.1191    10.2198 C       1      m1    -0.0082
   2248 C           -5.0197     9.1621     7.0414 C       1      m1    -0.0127
   2249 C           -4.5693     6.4683     9.8453 C       1      m1    -0.0082
   2250 H           -4.5366     8.9929     8.3006 H       1      m1     0.0203
   2251 C           -3.1402     8.5090     9.5107 C       1      m1    -0.0041
   2252 C           -3.1172     6.3132     9.9999 C       1      m1    -0.0015
   2253 H           -3.3536    10.9720     7.4688 H       1      m1     0.0194
   2254 C           -2.7137     9.8777     9.3746 C       1      m1    -0.0167
   2255 C           -2.4651    10.4312     7.9623 C       1      m1    -0.0148
   2256 C           -2.2957     7.4344     9.7998 C       1      m1    -0.0060
   2257 H           -1.6727     6.3750     7.7925 H       1      m1     0.0229
   2258 H           -2.1961    10.2254    10.2089 H       1      m1     0.0227
   2259 C           -1.2878     9.1874     7.6352 C       1      m1    -0.0021
   2260 C           -0.8621     8.9301     6.3647 C       1      m1    -0.0046
   2261 C           -0.6276     6.5777     7.4886 C       1      m1    -0.0178
   2262 C           -0.6356     7.5759     9.7297 C       1      m1    -0.0191
   2263 C           -0.4661     8.5867     8.4872 C       1      m1     0.0094
   2264 C            0.0318     6.4131     8.9139 C       1      m1    -0.0030
   2265 C            0.9298     8.7016     8.3220 C       1      m1    -0.0115
   2266 C            1.2337     7.2943     8.3674 C       1      m1     0.0255
   2267 H            1.5288     9.6781     8.0075 H       1      m1     0.0199
   2268 C            2.4950     6.6637     7.4938 C       1      m1     0.0055
   2269 C            3.6452     7.4001     7.4185 C       1      m1    -0.0046
   2270 H            3.9183     8.1357     9.8584 H       1      m1     0.0542
   2271 C            4.8425     8.0475     7.2905 C       1      m1    -0.0042
   2272 C            4.9125     7.9418     9.7358 C       1      m1    -0.0232
   2273 C            5.5647     8.4815     8.4737 C       1      m1     0.0032
   2274 H            6.4635    10.1096     9.1178 H       1      m1     0.0253
   2275 C            6.9595     9.0914     9.0466 C       1      m1    -0.0354
   2276 H            7.7231     8.6064     9.6243 H       1      m1     0.0247
   2277 C            7.9420     9.8555     6.6672 C       1      m1    -0.0058
   2278 C            8.0176     8.7802     7.7962 C       1      m1    -0.0015
   2279 C            8.9646     7.6596     7.8670 C       1      m1    -0.0062
   2280 C            9.2300     6.6048     6.7685 C       1      m1    -0.0181
   2281 C           10.2118    10.0908     9.8059 C       1      m1    -0.0201
   2282 C           10.2179     8.7519     9.6913 C       1      m1     0.0255
   2283 C           10.3694     8.0973     8.4735 C       1      m1    -0.0168
   2284 H           10.7505     8.8824     7.7750 H       1      m1     0.0285
   2285 C           10.9243     6.7353     8.2676 C       1      m1     0.0370
   2286 H           11.2439     6.5030     6.2141 H       1      m1     0.0252
   2287 C           13.8253    10.2733     7.8131 C       1      m1    -0.0095
   2288 H           14.4402     9.2754     8.0866 H       1      m1     0.0400
   2289 C           14.9617     6.3521     7.0660 C       1      m1    -0.0377
   2290 C          -15.8607    13.6412     9.7857 C       1      m1    -0.0110
   2291 C          -14.5625    14.0740     7.9842 C       1      m1     0.0035
   2292 C          -14.2365    11.7526     9.7779 C       1      m1     0.0026
   2293 C          -14.6682    10.5506     7.5662 C       1      m1     0.0010
   2294 C          -14.5806    11.5925     8.3761 C       1      m1    -0.0062
   2295 C          -14.0361    12.9284     7.5698 C       1      m1    -0.0016
   2296 C          -12.8854    12.9183     6.5042 C       1      m1    -0.0009
   2297 C          -12.6867    11.5538    10.2705 C       1      m1    -0.0347
   2298 H          -12.5848    12.6858    10.4410 H       1      m1     0.0213
   2299 C          -11.8789    10.9262     9.1489 C       1      m1     0.0056
   2300 H          -10.2172    13.6366     7.9582 H       1      m1     0.0170
   2301 C          -10.8613   -14.2909    10.0321 C       1      m1    -0.0079
   2302 C          -10.4821    11.1449     8.6116 C       1      m1    -0.0039
   2303 C           -9.8570    12.1876     9.3171 C       1      m1    -0.0108
   2304 C           -9.7369    10.1999     7.5575 C       1      m1    -0.0140
   2305 H           -9.5712    11.0990     6.9480 H       1      m1     0.0188
   2306 H           -9.4103   -14.3560     8.8632 H       1      m1     0.0263
   2307 C           -9.1617    13.2111    10.0587 C       1      m1    -0.0065
   2308 H           -8.9713    12.9596     7.4451 H       1      m1     0.0149
   2309 H           -8.6623    11.2785     8.4280 H       1      m1     0.0224
   2310 C           -7.9398    13.4196     7.8677 C       1      m1    -0.0182
   2311 C           -7.4336    14.0288     6.7443 C       1      m1    -0.0025
   2312 C           -7.2681    13.3858     9.1403 C       1      m1    -0.0038
   2313 C           -5.9058    13.8292     9.1704 C       1      m1     0.0184
   2314 C           -5.4323    14.4771     8.0624 C       1      m1     0.0017
   2315 C           -5.2096    12.9616    10.1997 C       1      m1    -0.0140
   2316 C           -4.2898    12.2358     9.2112 C       1      m1    -0.0002
   2317 C           -3.9927    10.7846     9.6091 C       1      m1    -0.0064
   2318 C           -3.0951    12.8324     8.7451 C       1      m1    -0.0044
   2319 C           -2.8271    14.4704     8.4108 C       1      m1     0.0230
   2320 C           -2.0379    11.8593     8.3633 C       1      m1    -0.0015
   2321 C           -0.5710    12.1040     8.4868 C       1      m1    -0.0199
   2322 C            0.1140    11.9929     9.6993 C       1      m1     0.0043
   2323 H           -0.0173    12.8165     7.7383 H       1      m1     0.0167
   2324 C            1.5541    11.5631     9.9734 C       1      m1    -0.0052
   2325 C            2.7801    12.1977     9.4698 C       1      m1    -0.0032
   2326 C            2.9703    13.4478     7.3928 C       1      m1    -0.0021
   2327 H            3.5723    10.1720     6.5107 H       1      m1     0.0222
   2328 C            3.5523    12.7978     8.6786 C       1      m1    -0.0010
   2329 C            4.8267    13.2133     9.6382 C       1      m1     0.0000
   2330 C            6.0712    12.3767     9.3264 C       1      m1    -0.0201
   2331 H            6.4393    12.3147    10.3164 H       1      m1     0.0198
   2332 C            6.9805    14.1920     8.2028 C       1      m1     0.0022
   2333 C            7.3781    12.8796     8.6325 C       1      m1    -0.0058
   2334 C            8.3311    12.3652     7.7626 C       1      m1    -0.0042
   2335 C            8.8137    10.7996     7.5216 C       1      m1    -0.0047
   2336 C            8.6560    12.6155     6.4080 C       1      m1     0.0008
   2337 C            9.4803    10.6283     8.6839 C       1      m1     0.0006
   2338 H           10.7746    11.4058     6.1624 H       1      m1     0.0215
   2339 C           11.6063    11.5707     6.9571 C       1      m1    -0.0224
   2340 C           11.6353    14.2814     7.0758 C       1      m1    -0.0283
   2341 C           11.8166    12.8861     7.5428 C       1      m1     0.0029
   2342 C           12.4575    10.4511     7.1753 C       1      m1     0.0089
   2343 C           12.8631    12.5878     8.7209 C       1      m1    -0.0024
   2344 C           13.1422    13.5753     9.6539 C       1      m1    -0.0052
   2345 C           13.7610    11.4017     8.6485 C       1      m1    -0.0131
   2346 H           14.3619    11.3251     9.5684 H       1      m1     0.0249
   2347 H           15.7972    12.9950     9.1616 H       1      m1     0.0211
   2348 C          -16.0112   -13.6699    12.1057 C       1      m1    -0.0073
   2349 C          -15.6837   -12.7387    14.2042 C       1      m1    -0.0016
   2350 C          -15.0990   -13.0025    12.7555 C       1      m1    -0.0046
   2351 H          -14.5235   -10.7027    11.3516 H       1      m1     0.0161
   2352 H          -14.1511   -10.8133    12.9739 H       1      m1     0.0225
   2353 C          -13.6935   -10.9193    11.9787 C       1      m1    -0.0534
   2354 C          -13.6836   -13.5395    12.4741 C       1      m1    -0.0060
   2355 C          -12.9806   -12.3132    11.9579 C       1      m1     0.0051
   2356 C          -11.5691   -10.8464    10.5574 C       1      m1     0.0039
   2357 C          -11.7204   -12.1142    11.2977 C       1      m1    -0.0075
   2358 C          -10.6202   -13.1950    10.9353 C       1      m1    -0.0021
   2359 C           -9.3620   -13.1470    11.0253 C       1      m1    -0.0055
   2360 C           -7.9700   -13.1336    11.0688 C       1      m1     0.0011
   2361 C           -8.0115   -12.5919    13.9760 C       1      m1    -0.0054
   2362 C           -7.5170   -11.8745    11.7769 C       1      m1    -0.0066
   2363 C           -7.4523   -14.5193    11.4266 C       1      m1    -0.0179
   2364 C           -6.8143   -10.6253    11.4723 C       1      m1    -0.0052
   2365 C           -6.6976   -12.1903    13.1512 C       1      m1    -0.0133
   2366 H           -6.3574   -13.2264    13.6523 H       1      m1     0.0206
   2367 C           -5.8762   -11.0678    13.6888 C       1      m1     0.0009
   2368 H           -5.3752   -12.0470    11.5966 H       1      m1    -0.0322
   2369 C           -4.9530   -11.7824    10.5933 C       1      m1     0.3539
   2370 C           -1.3717   -11.2752    12.7212 C       1      m1     0.0064
   2371 C           -1.2955   -11.0331    11.3190 C       1      m1    -0.0028
   2372 C           -1.0442   -12.3103    13.6695 C       1      m1    -0.0013
   2373 C           -0.7542   -12.0421    10.4753 C       1      m1     0.0357
   2374 C            0.1842   -13.1725    13.8896 C       1      m1     0.0015
   2375 C            0.7315   -12.6504    10.5702 C       1      m1    -0.0070
   2376 C            1.5061   -13.2602    13.1406 C       1      m1    -0.0073
   2377 C            1.5904   -12.6684    11.7326 C       1      m1     0.0015
   2378 C            1.8013   -11.3002    11.9504 C       1      m1    -0.0142
   2379 H            3.7636   -11.0949    13.5304 H       1      m1     0.0229
   2380 H            4.3737   -13.7094    12.4229 H       1      m1     0.0127
   2381 H            5.0998   -10.1511    12.8964 H       1      m1     0.0140
   2382 H            7.3337   -14.0113    10.1055 H       1      m1     0.0183
   2383 C            8.2173   -11.2674    14.4261 C       1      m1    -0.0078
   2384 C            8.8247   -11.0376    11.8566 C       1      m1     0.0015
   2385 C            9.0939   -11.5037    13.2390 C       1      m1     0.0600
   2386 H            9.0647   -11.1350    10.7932 H       1      m1     0.0553
   2387 C            9.8720   -14.2122    13.2099 C       1      m1    -0.0213
   2388 C           10.0156   -12.6347    13.5317 C       1      m1     0.0145
   2389 C           11.1395   -12.7604    14.3670 C       1      m1     0.0330
   2390 H           12.9669   -12.9250    11.7504 H       1      m1     0.0282
   2391 C           13.2378   -12.5898    10.7229 C       1      m1     0.0004
   2392 H           14.5610   -11.9461    14.4625 H       1      m1     0.0271
   2393 C           15.0570   -13.9277    11.2137 C       1      m1     0.0008
   2394 C           15.5456   -11.4760    14.1055 C       1      m1    -0.0161
   2395 C          -15.4898    -7.3071    13.1362 C       1      m1     0.2573
   2396 H          -14.9769    -7.7334    10.0519 H       1      m1     0.0203
   2397 C          -14.5421    -7.8194    12.3157 C       1      m1    -0.0478
   2398 C          -14.1893    -7.2196    10.9120 C       1      m1     0.0216
   2399 H          -13.7728    -8.6435    12.8535 H       1      m1     0.0167
   2400 C          -13.5557    -6.1803    10.9522 C       1      m1     0.0542
   2401 H          -12.9863   -10.0104    11.5638 H       1      m1     0.0222
   2402 H          -11.7759    -8.5462    11.3096 H       1      m1     0.0390
   2403 C          -11.1942    -9.2784    11.1173 C       1      m1    -0.0161
   2404 C           -9.7710    -9.1862    10.6623 C       1      m1     0.0197
   2405 C           -8.7753    -9.3677    13.8890 C       1      m1    -0.0223
   2406 C           -8.7742    -7.9918    10.6871 C       1      m1     0.0146
   2407 C           -8.5192    -8.0124    13.4118 C       1      m1     0.0011
   2408 H           -8.5260   -10.3308    13.3612 H       1      m1     0.0222
   2409 C           -8.0335    -7.8107    11.9275 C       1      m1    -0.0256
   2410 H           -7.0893    -7.1829    11.8354 H       1      m1     0.0199
   2411 C           -6.2501   -10.0860    12.6816 C       1      m1    -0.0081
   2412 H           -5.5180    -8.3445   -14.3430 H       1      m1     0.0249
   2413 H           -5.5682    -6.2256    11.0250 H       1      m1     0.0144
   2414 C           -5.7757    -8.6649    12.4417 C       1      m1     0.0052
   2415 C           -5.4705    -7.2949    10.7717 C       1      m1    -0.0202
   2416 C           -5.2467    -8.7102    10.9541 C       1      m1    -0.0042
   2417 C           -5.1728    -8.0698    13.5653 C       1      m1    -0.0437
   2418 H           -4.2227    -7.6075    13.4702 H       1      m1     0.0335
   2419 H           -3.7022    -9.0534    13.8321 H       1      m1     0.0246
   2420 C           -2.8864    -6.6959    11.4118 C       1      m1    -0.0220
   2421 C           -2.7796    -8.0745    11.9687 C       1      m1     0.0035
   2422 C           -2.8884    -8.9200    13.1678 C       1      m1    -0.0207
   2423 H           -1.5799   -10.0504    10.7399 H       1      m1     0.0243
   2424 C           -1.6000    -6.5864    10.7613 C       1      m1    -0.0033
   2425 C           -1.7961    -9.9363    13.1506 C       1      m1     0.0025
   2426 H           -0.9433    -5.6993    12.5821 H       1      m1     0.0213
   2427 C           -0.3055    -9.6877    13.5861 C       1      m1    -0.0184
   2428 C           -0.2732    -6.8448    14.1321 C       1      m1     0.0106
   2429 C           -0.5284    -7.5457    10.7699 C       1      m1    -0.0107
   2430 C           -0.0120    -8.2495    13.2397 C       1      m1     0.0140
   2431 H            0.1667   -10.4194    14.2183 H       1      m1     0.0206
   2432 C            0.3178    -8.2486    11.8318 C       1      m1     0.0096
   2433 C            0.8668    -9.2662    11.0453 C       1      m1    -0.0129
   2434 C            2.0709   -10.1123    11.7272 C       1      m1     0.0014
   2435 C            3.4830    -9.4868    12.0539 C       1      m1     0.0220
   2436 C            4.0845    -8.6352    11.0525 C       1      m1    -0.0421
   2437 C            4.0760   -10.1827    13.3141 C       1      m1    -0.0633
   2438 H            4.3186    -9.5317    14.2234 H       1      m1     0.0418
   2439 C            4.9657    -7.5727    11.3563 C       1      m1     0.2426
   2440 C            6.1058    -7.8067    10.6084 C       1      m1    -0.0487
   2441 H            6.8427   -10.1950    12.6116 H       1      m1     0.0112
   2442 C            7.2916    -6.8724    10.8628 C       1      m1     0.0265
   2443 C            7.6071   -10.3512    11.7468 C       1      m1    -0.0181
   2444 O           10.9462    -9.7251    13.5885 O       1      m1    -0.4873
   2445 C           11.0245    -6.4389    14.3581 C       1      m1     0.0543
   2446 C           11.6374    -8.7219    13.2569 C       1      m1     0.3340
   2447 C           11.9128    -7.2969    13.3589 C       1      m1    -0.0869
   2448 C           13.3004    -6.8721    13.2295 C       1      m1    -0.0028
   2449 H           14.0869    -7.3014    12.7028 H       1      m1     0.0270
   2450 H           13.7175    -7.3739    10.4390 H       1      m1     0.0235
   2451 H           14.6604    -9.1839    14.1224 H       1      m1     0.0194
   2452 C           15.4905    -9.9904    14.0117 C       1      m1    -0.0222
   2453 O          -15.6513    -5.9607    12.7442 O       1      m1    -0.4645
   2454 H          -14.6383    -2.8568    11.9773 H       1      m1     0.0459
   2455 C          -12.9991    -4.8660    10.4861 C       1      m1     0.0235
   2456 H          -11.6358    -5.4130    13.2495 H       1      m1     0.0353
   2457 H          -11.0929    -1.7674    13.9482 H       1      m1     0.2321
   2458 C          -11.1271    -5.2203    14.1170 C       1      m1     0.0005
   2459 C           -9.7433    -5.2447    13.6611 C       1      m1     0.0015
   2460 C           -9.7135    -2.7006    11.3234 C       1      m1    -0.0021
   2461 C           -9.3174    -3.9284    11.8769 C       1      m1    -0.0008
   2462 C           -9.0885    -5.0601    12.2612 C       1      m1    -0.0139
   2463 H           -8.6942    -3.4354    13.8355 H       1      m1     0.0376
   2464 C           -8.6017    -2.4248    14.1853 C       1      m1    -0.0862
   2465 H           -7.9773    -5.4439    12.0145 H       1      m1     0.0142
   2466 H           -7.6674    -4.9056    14.3821 H       1      m1     0.0190
   2467 C           -5.4999    -2.5763    13.0247 C       1      m1    -0.0144
   2468 H           -5.0378    -3.5794    12.7109 H       1      m1     0.0237
   2469 H           -3.5206    -5.9097    11.7205 H       1      m1     0.0224
   2470 H           -3.9170    -4.2668    10.0581 H       1      m1     0.0173
   2471 H           -0.7504    -4.5876    13.7852 H       1      m1     0.0293
   2472 C           -0.9939    -5.6587    13.5896 C       1      m1    -0.0050
   2473 C            0.7331    -3.0175    14.0345 C       1      m1    -0.0043
   2474 C            1.1155    -2.3922    12.9258 C       1      m1    -0.0100
   2475 H            2.2792    -2.3258    13.1132 H       1      m1     0.0323
   2476 O            4.5104    -6.1134    11.7046 O       1      m1    -0.5323
   2477 H            5.4660    -5.8149   -14.1389 H       1      m1     0.0546
   2478 H            5.3163    -5.4205    11.8587 H       1      m1     0.2342
   2479 H            7.8594    -2.0647    13.2885 H       1      m1     0.0189
   2480 C            8.2246    -6.0976    11.1381 C       1      m1    -0.0328
   2481 C            8.5802    -4.5919    10.6606 C       1      m1     0.0148
   2482 H            8.8242    -6.6453    11.8636 H       1      m1     0.0298
   2483 C            9.9731    -4.2701    10.7698 C       1      m1    -0.0237
   2484 H           10.6292    -4.8231    11.3849 H       1      m1     0.0244
   2485 C           11.5679    -2.7346    11.0203 C       1      m1     0.0004
   2486 C           11.8908    -5.1799    14.1315 C       1      m1    -0.0013
   2487 C           12.8662    -3.5007    10.8890 C       1      m1    -0.0158
   2488 C           13.2339    -5.5162    13.6036 C       1      m1     0.0168
   2489 H           13.4896    -3.4559    13.7381 H       1      m1     0.0201
   2490 C           13.9273    -4.2273    13.1254 C       1      m1    -0.0567
   2491 C           13.9734    -4.1456    11.5014 C       1      m1     0.0004
   2492 H           14.7399    -3.4749    11.1983 H       1      m1     0.0263
   2493 H           14.9724    -4.6639    13.1179 H       1      m1     0.1000
   2494 C          -16.0269    -1.1733    12.8109 C       1      m1    -0.0007
   2495 C          -15.1912    -1.2289    14.1703 C       1      m1     0.0083
   2496 C          -15.2395    -1.8429    11.8107 C       1      m1    -0.0120
   2497 C          -15.1905     1.1283    13.0260 C       1      m1    -0.0100
   2498 C          -14.0429    -0.4227    14.1229 C       1      m1     0.0076
   2499 C          -13.8262     0.2950    12.9020 C       1      m1    -0.0026
   2500 C          -13.2199     0.2104    11.5594 C       1      m1    -0.0195
   2501 H          -13.8784     0.7758    10.8714 H       1      m1     0.0197
   2502 C          -12.2902    -0.4173    10.6345 C       1      m1    -0.0018
   2503 H          -11.0095     1.1885    12.3324 H       1      m1     0.0184
   2504 H          -11.6088     0.3035    14.1588 H       1      m1     0.0511
   2505 C          -10.8985     1.3087    14.0808 C       1      m1    -0.0361
   2506 C          -10.4820     0.9399    11.2787 C       1      m1    -0.0222
   2507 H           -9.9796     1.2037    13.3889 H       1      m1     0.0205
   2508 C           -9.5710     1.7572    10.7643 C       1      m1     0.0039
   2509 C           -8.9808    -1.5201    10.9925 C       1      m1    -0.0240
   2510 C           -7.7884    -1.5816    11.7188 C       1      m1    -0.0042
   2511 C           -6.8229    -1.9871    12.3032 C       1      m1    -0.0010
   2512 C           -6.1499    -2.0887    14.2986 C       1      m1     0.0053
   2513 C           -4.8690    -1.4095    10.6381 C       1      m1     0.0019
   2514 C           -4.6554     1.8922    14.2279 C       1      m1    -0.0268
   2515 C           -4.5201    -1.3770    12.9699 C       1      m1     0.0017
   2516 C           -4.1263    -0.9138    14.2869 C       1      m1    -0.0008
   2517 C           -4.1793    -0.6953    11.6359 C       1      m1    -0.0025
   2518 H           -3.7534     1.1911    12.2434 H       1      m1     0.0182
   2519 C           -3.5534     0.7603    11.2339 C       1      m1    -0.0138
   2520 C           -2.3893     0.2733    10.6593 C       1      m1    -0.0190
   2521 H           -1.8440     0.2888    11.5459 H       1      m1     0.0105
   2522 H           -0.7556    -1.5104    13.3405 H       1      m1     0.0203
   2523 H           -0.1415     0.7876    12.9659 H       1      m1     0.0143
   2524 H           -0.4587    -0.0859    11.0425 H       1      m1    -0.0033
   2525 H            0.0972     1.1370    10.6623 H       1      m1     0.0081
   2526 C           -0.1794    -1.1695    11.0666 C       1      m1    -0.0167
   2527 C            0.1548    -1.3488    12.7388 C       1      m1    -0.0116
   2528 C            0.5231    -0.0369    13.0204 C       1      m1    -0.0226
   2529 C            1.2839     0.1459    13.9249 C       1      m1    -0.0045
   2530 H            3.3343    -1.4742   -14.2226 H       1      m1     0.0287
   2531 C            4.6280     0.1660    14.3341 C       1      m1     0.0123
   2532 C            5.7260     1.0083    14.1970 C       1      m1    -0.0111
   2533 C            6.6639    -0.1968    10.6384 C       1      m1     0.2303
   2534 H            6.2771     1.2903    13.1172 H       1      m1     0.0199
   2535 O            6.6318    -1.5715    11.2187 O       1      m1    -0.4875
   2536 C            7.6133     0.6096    11.4220 C       1      m1    -0.0306
   2537 C            7.6150    -1.3282    12.4137 C       1      m1     0.2053
   2538 C            8.0545     1.7724    10.7130 C       1      m1    -0.0183
   2539 C            8.1418    -0.0684    12.5194 C       1      m1    -0.0372
   2540 C            9.0902     0.5245    13.7774 C       1      m1     0.0060
   2541 H            8.4688     2.6554    11.2286 H       1      m1     0.0184
   2542 C           10.4897     1.0197    13.5852 C       1      m1    -0.0024
   2543 C           11.1251     1.0618    12.2595 C       1      m1     0.0006
   2544 C           11.1650     1.9729    14.4646 C       1      m1    -0.0086
   2545 H           12.1944     0.2922    10.3208 H       1      m1     0.0137
   2546 H           11.5225    -1.5521    12.8955 H       1      m1     0.0217
   2547 C           12.0768    -0.0213    11.5280 C       1      m1    -0.0106
   2548 C           11.9242    -1.5392    11.8795 C       1      m1    -0.0324
   2549 H           12.9461    -1.9048    12.0861 H       1      m1     0.0192
   2550 C           13.2907     0.9238    11.8423 C       1      m1    -0.0089
   2551 C           14.4704     0.7237    12.4780 C       1      m1    -0.0130
   2552 C           15.6736     0.3533    12.9751 C       1      m1    -0.0054
   2553 C          -15.8240     3.3895    14.3619 C       1      m1    -0.0069
   2554 C          -15.0585     2.4184    13.7663 C       1      m1    -0.0056
   2555 H          -14.4257     2.9106    11.7231 H       1      m1     0.0175
   2556 C          -13.6446     3.0327    13.4715 C       1      m1    -0.0061
   2557 C          -13.3446     3.3511    11.9812 C       1      m1    -0.0148
   2558 C          -12.2697     3.5916    11.1814 C       1      m1    -0.0217
   2559 C          -12.5754     5.8694    14.1635 C       1      m1    -0.0277
   2560 C          -12.0126     6.2046    13.0019 C       1      m1     0.0017
   2561 H          -11.7886     4.4437    11.3757 H       1      m1     0.0249
   2562 C          -11.6486     2.6932    14.2067 C       1      m1     0.0037
   2563 C          -10.8690     3.9311    14.4608 C       1      m1    -0.0008
   2564 C          -10.7261     5.6877    12.7028 C       1      m1    -0.0098
   2565 C          -10.1872     6.2284    11.5011 C       1      m1    -0.0027
   2566 C           -9.8054     4.5358    13.3181 C       1      m1     0.0084
   2567 C           -9.9341     3.2236    12.5349 C       1      m1    -0.0048
   2568 C           -8.7202     2.9205    11.5347 C       1      m1    -0.0158
   2569 C           -8.3004     4.9756    13.7638 C       1      m1    -0.0479
   2570 C           -8.2746     4.0109    10.5013 C       1      m1    -0.0163
   2571 H           -7.9425     2.1578    11.8996 H       1      m1     0.0155
   2572 H           -7.3241     3.8034    12.8319 H       1      m1     0.0254
   2573 H           -7.6095     4.8688    10.8979 H       1      m1     0.0191
   2574 C           -7.3632     3.6920    13.9103 C       1      m1    -0.0237
   2575 H           -6.3967     4.0552   -14.3928 H       1      m1     0.0718
   2576 H           -5.2940     3.8307    12.4950 H       1      m1     0.0254
   2577 H           -5.6286     2.1871    13.9065 H       1      m1     0.0157
   2578 H           -4.9937     4.1402    10.5735 H       1      m1     0.0205
   2579 C           -4.6072     4.1846    11.7271 C       1      m1    -0.0506
   2580 H           -4.6497     5.3063    12.0462 H       1      m1     0.0290
   2581 C           -3.5018     2.9529   -14.4370 C       1      m1    -0.0078
   2582 C           -3.2642     3.4903    12.0997 C       1      m1     0.0030
   2583 C           -2.6007     3.0757    13.2622 C       1      m1    -0.0051
   2584 C           -2.4952     4.0013    11.0807 C       1      m1     0.0030
   2585 H           -1.8734     5.1028    13.8165 H       1      m1     0.0194
   2586 C           -1.1296     3.3258    12.9197 C       1      m1    -0.0246
   2587 C           -1.1437     3.7608    11.7628 C       1      m1    -0.0157
   2588 H           -0.2944     4.0605    11.3484 H       1      m1     0.0307
   2589 H           -0.5982     3.4211    13.8325 H       1      m1     0.0150
   2590 H            1.0918     5.3126    13.8419 H       1      m1     0.0282
   2591 H            1.0674     2.4988    11.6624 H       1      m1     0.0317
   2592 H            1.5911     4.0832    12.2188 H       1      m1     0.0297
   2593 C            1.9701     2.9939    11.9456 C       1      m1    -0.0263
   2594 C            2.2872     2.5875    13.3821 C       1      m1    -0.0064
   2595 C            3.2468     3.1258    11.0514 C       1      m1     0.0064
   2596 H            3.9049     4.7242    13.8120 H       1      m1     0.0217
   2597 C            4.2891     5.3221    12.9754 C       1      m1    -0.0163
   2598 C            4.6416     3.5062    11.5307 C       1      m1    -0.0208
   2599 C            5.0990     4.8122    11.7659 C       1      m1     0.0049
   2600 H            5.3413     2.4050    11.2540 H       1      m1     0.0147
   2601 C            6.0022     5.8262    10.9999 C       1      m1    -0.0122
   2602 C            7.6043     5.5232    11.5834 C       1      m1    -0.0006
   2603 H            8.1877     3.6977    12.3603 H       1      m1     0.0141
   2604 C            8.5307     4.5446    11.7606 C       1      m1    -0.0251
   2605 C            9.9090     4.5215    11.3525 C       1      m1    -0.0011
   2606 C           10.3345     6.0031    10.8126 C       1      m1     0.0161
   2607 C           10.8403     3.4893    11.5566 C       1      m1     0.0004
   2608 C           11.5543     2.5691    12.1104 C       1      m1    -0.0005
   2609 C           13.0109     2.5041    11.5303 C       1      m1    -0.0125
   2610 H           13.7746     2.6873    12.2854 H       1      m1     0.0220
   2611 H           13.4102     5.2867    13.1878 H       1      m1     0.0326
   2612 C           14.1715     5.4814    13.9890 C       1      m1    -0.0127
   2613 H           14.9774     5.5275    11.7880 H       1      m1     0.0376
   2614 H           15.2530     3.5381    10.7275 H       1      m1     0.0209
   2615 C          -15.7884     7.4306    11.4130 C       1      m1     0.0133
   2616 C          -15.4126    10.0701    11.0147 C       1      m1    -0.0311
   2617 C          -15.0607     8.2908    13.1328 C       1      m1    -0.0058
   2618 C          -15.0430     8.4027   -14.4391 C       1      m1    -0.0130
   2619 C          -14.4484     7.4715    12.3140 C       1      m1    -0.0050
   2620 H          -13.6624     6.0119    14.2932 H       1      m1     0.0188
   2621 C          -13.1998     6.9379    12.3749 C       1      m1    -0.0080
   2622 H          -11.0954     9.6896    12.9195 H       1      m1     0.0172
   2623 C          -10.2779    10.1032    12.2185 C       1      m1    -0.0139
   2624 H           -9.7213     7.0623    14.1955 H       1      m1     0.0282
   2625 C           -9.9075     9.3684    11.1860 C       1      m1    -0.0003
   2626 C           -9.9167     6.9061    10.6498 C       1      m1    -0.0034
   2627 H           -7.6217     9.2026    11.1930 H       1      m1     0.0255
   2628 H           -6.7487     6.7085    11.7546 H       1      m1     0.0296
   2629 C           -6.0414     7.4737    11.7788 C       1      m1    -0.0206
   2630 H           -6.1662     8.8689    13.8563 H       1      m1     0.0256
   2631 C           -5.7529     8.1607    12.9936 C       1      m1     0.0194
   2632 C           -5.2641     7.5983    10.5480 C       1      m1    -0.0076
   2633 C           -4.3454     8.7317    10.3746 C       1      m1    -0.0037
   2634 C           -4.3758     7.7351    12.9825 C       1      m1    -0.0189
   2635 H           -4.3244     6.7612    12.5947 H       1      m1     0.0309
   2636 C           -3.7890     7.4178    14.4262 C       1      m1     0.0286
   2637 H           -1.5731     8.9814    13.2316 H       1      m1     0.0197
   2638 C           -1.7346     8.9706    14.2321 C       1      m1    -0.0211
   2639 H           -0.2087     7.5709    10.7309 H       1      m1     0.0545
   2640 C            0.0156     7.0891    14.2394 C       1      m1    -0.0276
   2641 C            1.0641     7.6581    13.1852 C       1      m1     0.1147
   2642 C            1.5570     8.7228    12.9256 C       1      m1     0.1465
   2643 C            1.9128    10.2216    13.2768 C       1      m1    -0.0464
   2644 O            1.9994     7.7092    11.9336 O       1      m1    -0.4496
   2645 H            3.2269    10.2149    12.9212 H       1      m1     0.0235
   2646 H            2.6127     9.9371    11.1991 H       1      m1     0.0465
   2647 H            2.7178     8.3450   -14.1663 H       1      m1     0.0193
   2648 H            4.5153     8.6312    12.6574 H       1      m1     0.0414
   2649 C            4.4929     6.5818    13.0441 C       1      m1     0.0422
   2650 C            4.9571     7.8545    13.2653 C       1      m1    -0.0256
   2651 C            5.4946     6.8889    10.2353 C       1      m1     0.0147
   2652 C            6.2145     8.3442    14.0338 C       1      m1     0.0039
   2653 C            7.4274    10.3586    13.3178 C       1      m1     0.0054
   2654 H            7.2756     7.3659    11.8195 H       1      m1     0.0190
   2655 C            7.3825     9.0889    13.3221 C       1      m1    -0.0266
   2656 C            8.2403     6.8050    11.4085 C       1      m1    -0.0209
   2657 H            8.1633     8.2644    12.7513 H       1      m1     0.0148
   2658 C            9.6453     7.2984    11.2823 C       1      m1    -0.0024
   2659 C           10.6659     8.3079    10.8865 C       1      m1    -0.0305
   2660 C           12.0080     8.1259    11.3292 C       1      m1     0.1354
   2661 O           13.1596     7.3855    10.4834 O       1      m1    -0.4102
   2662 C           13.3000     8.3574    11.8129 C       1      m1     0.1104
   2663 C           14.5149     9.1975    12.0631 C       1      m1    -0.0174
   2664 C           15.1429     6.4752    13.4422 C       1      m1    -0.0213
   2665 H           15.3226     7.2710    14.2594 H       1      m1     0.0233
   2666 C           15.3759     6.5370    12.2919 C       1      m1     0.0124
   2667 C           15.7390     8.9085    11.3964 C       1      m1     0.0295
   2668 H          -15.5151    10.9401    11.3109 H       1      m1     0.0247
   2669 H          -14.8476    11.9734    13.5105 H       1      m1     0.0221
   2670 C          -14.6807    12.8959    10.4521 C       1      m1    -0.0251
   2671 C          -14.1553    12.4796    13.8169 C       1      m1    -0.0261
   2672 H          -14.2624    13.3401    11.3516 H       1      m1     0.0207
   2673 C          -13.0945    14.2738    12.7844 C       1      m1    -0.0009
   2674 C          -12.9938    12.9864    12.9576 C       1      m1    -0.0010
   2675 H          -12.7196    10.8487    11.1000 H       1      m1     0.0238
   2676 C          -11.5920    12.6125    13.4448 C       1      m1    -0.0004
   2677 C          -11.0553    13.2223   -14.4414 C       1      m1    -0.0007
   2678 C          -10.6120    12.6426    12.0570 C       1      m1    -0.0009
   2679 C          -10.1943    13.6783    10.9928 C       1      m1    -0.0042
   2680 C           -9.6672    11.4722    12.1118 C       1      m1    -0.0141
   2681 H           -8.7430    12.0749    11.7892 H       1      m1     0.0188
   2682 C           -7.7650    13.6743    10.3648 C       1      m1    -0.0011
   2683 H           -6.6866    14.5086    12.1720 H       1      m1     0.0167
   2684 H           -5.5724    12.1279    10.8707 H       1      m1     0.0176
   2685 H           -5.5859    13.0038    13.8668 H       1      m1     0.0143
   2686 C           -4.5311    13.0553    14.1140 C       1      m1    -0.0232
   2687 H           -4.7961    14.4120    11.8431 H       1      m1     0.0338
   2688 C           -4.3297    13.6047    11.2379 C       1      m1    -0.0001
   2689 C           -3.4008    11.8175    13.7838 C       1      m1    -0.0062
   2690 C           -3.5479    10.6936    14.4459 C       1      m1    -0.0098
   2691 C           -2.9665    13.0498    11.2535 C       1      m1     0.0167
   2692 C           -2.1628    11.8536    12.9302 C       1      m1    -0.0040
   2693 C           -2.0249    12.1059    11.5231 C       1      m1    -0.0055
   2694 C           -0.9000    11.7911    13.5411 C       1      m1     0.0066
   2695 C           -0.6191    11.7661    10.9766 C       1      m1     0.0032
   2696 C           -0.2186    11.2003    12.2873 C       1      m1    -0.0055
   2697 C            1.0247    10.6557    12.0517 C       1      m1     0.0012
   2698 C            1.5420    10.4207    10.7317 C       1      m1     0.0024
   2699 C            1.9957   -14.5166    13.5754 C       1      m1    -0.0026
   2700 C            3.2728    13.9301    12.9707 C       1      m1    -0.0164
   2701 H            2.7864    13.0046    13.1327 H       1      m1     0.0256
   2702 C            4.3934    14.3265    12.1170 C       1      m1    -0.0168
   2703 C            4.5822    13.8518    10.8522 C       1      m1    -0.0069
   2704 C            6.8858    13.5186   -14.4569 C       1      m1    -0.0145
   2705 C            7.3199    12.5939    13.6136 C       1      m1    -0.0020
   2706 C            7.7726    11.5222    12.8474 C       1      m1    -0.0309
   2707 H            8.5403    11.8599    12.1327 H       1      m1     0.0140
   2708 H            9.0162    14.0462    13.3501 H       1      m1     0.0179
   2709 H           10.4013    10.7490    10.6249 H       1      m1     0.0199
   2710 C           10.9004    14.2988    12.5741 C       1      m1     0.0002
   2711 C           11.9056    13.7721    11.8692 C       1      m1    -0.0062
   2712 C           11.9540    14.0776    10.3348 C       1      m1    -0.0048
   2713 C           12.7654    13.5040    14.3755 C       1      m1    -0.0023
   2714 C           13.0705    13.2306    11.8541 C       1      m1    -0.0019
   2715 C           13.5465    13.0223    13.2146 C       1      m1    -0.0021
   2716 C           13.9328    13.3589    10.8154 C       1      m1    -0.0047
   2717 C           14.0622    11.7603    13.0290 C       1      m1    -0.0068
   2718 C           14.3926    10.4483    12.7292 C       1      m1    -0.0073
   2719 C           15.3429    13.8255    11.1192 C       1      m1    -0.0168
   2720 H           15.6468    13.2374    11.9902 H       1      m1     0.0207
   2721 B           16.0330   -14.5504    14.4664 B       2     BOX     0.0000
   2722 B          -16.0330   -14.5504    14.4664 B       2     BOX     0.0000
   2723 B          -16.0330    14.5504    14.4664 B       2     BOX     0.0000
   2724 B           16.0330    14.5504    14.4664 B       2     BOX     0.0000
   2725 B           16.0330   -14.5504   -14.4664 B       2     BOX     0.0000
   2726 B          -16.0330   -14.5504   -14.4664 B       2     BOX     0.0000
   2727 B          -16.0330    14.5504   -14.4664 B       2     BOX     0.0000
   2728 B           16.0330    14.5504   -14.4664 B       2     BOX     0.0000
@<TRIPOS>BOND
     1      1      2      1
     2      2      3      1
     3      2      4      1
     4      3      5      1
     5      3     66      1
     6      6      8      1
     7      6    396      1
     8      6    398      1
     9      7    338      1
    10      7    341      1
    11      9     11      1
    12     10     12      1
    13     11     16      1
    14     11    345      1
    15     12    345      1
    16     13     15      1
    17     13     73      1
    18     14     15      1
    19     15     18      1
    20     16    405      1
    21     18     19      1
    22     18     80      1
    23     19     20      1
    24     19     21      1
    25     20     22      1
    26     20     24      1
    27     21     23      1
    28     24     25      1
    29     24     26      1
    30     26     27      1
    31     26     30      1
    32     28     29      1
    33     29     33      1
    34     30     32      1
    35     30    415      1
    36     31     33      1
    37     32     34      1
    38     32     87      1
    39     33     35      1
    40     36     37      1
    41     37     38      1
    42     37     40      1
    43     37     94      1
    44     39     40      1
    45     39     42      1
    46     39     43      1
    47     40     41      1
    48     42     44      1
    49     42    423      1
    50     43     46      1
    51     44     48      1
    52     45     47      1
    53     46     47      1
    54     47     50      1
    55     48     49      1
    56     49    103      1
    57     49    428      1
    58     50     51      1
    59     51     52      1
    60     52     54      1
    61     53    105      1
    62     53    428      1
    63     53    488      1
    64     55     58      1
    65     57     58      1
    66     57    108      1
    67     58     60      1
    68     59     60      1
    69     59    437      1
    70     59    440      1
    71     59    442      1
    72     60     61      1
    73     62     64      1
    74     63     67      1
    75     64     65      1
    76     65     66      1
    77     67     69      1
    78     68     69      1
    79     68    116      1
    80     68    120      1
    81     69    506      1
    82     70     71      1
    83     71     72      1
    84     71     74      1
    85     71    124      1
    86     73     74      1
    87     74     76      1
    88     75     76      1
    89     75    128      1
    90     76     77      1
    91     77    127      1
    92     77    131      1
    93     78     79      1
    94     79     80      1
    95     79    461      1
    96     80     82      1
    97     80    410      1
    98     81     83      1
    99     83     84      1
   100     83    138      1
   101     84     85      1
   102     84     86      1
   103     85     87      1
   104     86     88      1
   105     86    140      1
   106     87     89      1
   107     88     89      1
   108     88     90      1
   109     89     91      1
   110     90     92      1
   111     90    142      1
   112     93    149      1
   113     95     98      1
   114     96     97      1
   115     97    481      1
   116     97    539      1
   117     98    103      1
   118     98    481      1
   119     99    100      1
   120     99    102      1
   121    100    101      1
   122    101    154      1
   123    101    157      1
   124    103    104      1
   125    106    157      1
   126    107    108      1
   127    108    109      1
   128    109    440      1
   129    109    491      1
   130    110    111      1
   131    110    165      1
   132    110    493      1
   133    111    112      1
   134    111    166      1
   135    113    115      1
   136    114    498      1
   137    115    117      1
   138    115    170      1
   139    117    118      1
   140    117    119      1
   141    119    172      1
   142    119    176      1
   143    120    121      1
   144    121    124      1
   145    122    124      1
   146    122    125      1
   147    122    510      1
   148    123    125      1
   149    123    176      1
   150    123    513      1
   151    124    127      1
   152    125    126      1
   153    126    127      1
   154    126    130      1
   155    127    128      1
   156    129    130      1
   157    130    132      1
   158    131    133      1
   159    131    135      1
   160    132    136      1
   161    132    518      1
   162    133    460      1
   163    133    518      1
   164    134    135      1
   165    135    138      1
   166    136    137      1
   167    136    189      1
   168    137    139      1
   169    138    140      1
   170    139    141      1
   171    139    525      1
   172    141    197      1
   173    143    146      1
   174    144    145      1
   175    144    146      1
   176    146    148      1
   177    147    148      1
   178    147    202      1
   179    148    150      1
   180    149    150      1
   181    151    152      1
   182    151    590      1
   183    152    153      1
   184    153    155      1
   185    154    155      1
   186    154   2477      1
   187    155    156      1
   188    156    157      1
   189    158    159      1
   190    159    160      1
   191    159    546      1
   192    160    161      1
   193    160    215      1
   194    161    162      1
   195    161    164      1
   196    164    165      1
   197    164    166      1
   198    165    549      1
   199    166    168      1
   200    167    554      1
   201    169    222      1
   202    170    172      1
   203    171    173      1
   204    171    223      1
   205    171    557      1
   206    172    174      1
   207    174    175      1
   208    175    177      1
   209    176    178      1
   210    177    178      1
   211    177    181      1
   212    178    562      1
   213    179    182      1
   214    180    181      1
   215    180    232      1
   216    181    183      1
   217    181    184      1
   218    182    183      1
   219    183    185      1
   220    185    186      1
   221    185    188      1
   222    187    188      1
   223    188    189      1
   224    189    191      1
   225    189    192      1
   226    190    238      1
   227    193   2514      1
   228    193   2516      1
   229    194    196      1
   230    195    198      1
   231    196    197      1
   232    196    199      1
   233    198    199      1
   234    198    248      1
   235    198    249      1
   236    199    200      1
   237    200    582      1
   238    201    205      1
   239    201    256      1
   240    202    203      1
   241    203    204      1
   242    203    205      1
   243    204    206      1
   244    204    254      1
   245    205   2530      1
   246    207    208      1
   247    207    591      1
   248    208    209      1
   249    208    265      1
   250    210    599      1
   251    211    212      1
   252    211    213      1
   253    212    600      1
   254    213    214      1
   255    216    218      1
   256    217    218      1
   257    217    278      1
   258    218    220      1
   259    218    609      1
   260    219    222      1
   261    220    221      1
   262    221    554      1
   263    223    224      1
   264    223    615      1
   265    224    225      1
   266    224    617      1
   267    225    227      1
   268    226    227      1
   269    227    228      1
   270    229    230      1
   271    229    563      1
   272    231    289      1
   273    232    235      1
   274    233    239      1
   275    233    291      1
   276    234    236      1
   277    234    623      1
   278    234    628      1
   279    235    238      1
   280    236    240      1
   281    237    238      1
   282    237    628      1
   283    239    240      1
   284    240    241      1
   285    241    242      1
   286    241    244      1
   287    242    694      1
   288    242    697      1
   289    243    245      1
   290    245    247      1
   291    245   2581      1
   292    246    247      1
   293    249    250      1
   294    249    637      1
   295    250    251      1
   296    251    252      1
   297    253    254      1
   298    253    582      1
   299    253    643      1
   300    254    257      1
   301    255    257      1
   302    255    258      1
   303    255    644      1
   304    256    259      1
   305    257    259      1
   306    258    260      1
   307    258    309      1
   308    259    261      1
   309    260    262      1
   310    261    264      1
   311    262    263      1
   312    262    316      1
   313    264    266      1
   314    267    269      1
   315    268    270      1
   316    269    270      1
   317    269    272      1
   318    270    271      1
   319    270    273      1
   320    271    655      1
   321    271    656      1
   322    272    274      1
   323    274    276      1
   324    274    322      1
   325    275    277      1
   326    275    278      1
   327    276    277      1
   328    276    328      1
   329    278    280      1
   330    279    281      1
   331    279    665      1
   332    279    670      1
   333    280    281      1
   334    280    282      1
   335    281    331      1
   336    283    284      1
   337    283    333      1
   338    283   2618      1
   339    284    285      1
   340    284    286      1
   341    285    678      1
   342    287    288      1
   343    288    289      1
   344    288    683      1
   345    289    623      1
   346    290    292      1
   347    290    344      1
   348    290    739      1
   349    291    293      1
   350    292    294      1
   351    292    689      1
   352    293    294      1
   353    294    295      1
   354    295    348      1
   355    296    349      1
   356    297    298      1
   357    298    299      1
   358    300    697      1
   359    301    303      1
   360    302    304      1
   361    302    700      1
   362    305    306      1
   363    305    352      1
   364    305    357      1
   365    306    702      1
   366    306    707      1
   367    307    310      1
   368    307    357      1
   369    307    707      1
   370    308    311      1
   371    308    361      1
   372    308   2647      1
   373    310    311      1
   374    310    365      1
   375    310    713      1
   376    311    312      1
   377    312    313      1
   378    312    314      1
   379    313    315      1
   380    313    713      1
   381    314    317      1
   382    315    316      1
   383    315    718      1
   384    316    654      1
   385    318    718      1
   386    319    320      1
   387    319    718      1
   388    319    720      1
   389    319    721      1
   390    320    321      1
   391    320    375      1
   392    321    324      1
   393    323    324      1
   394    323    660      1
   395    324    325      1
   396    326    327      1
   397    327    329      1
   398    327    330      1
   399    328    329      1
   400    329    331      1
   401    330    388      1
   402    331    332      1
   403    334    336      1
   404    335    336      1
   405    336    338      1
   406    337    338      1
   407    339    735      1
   408    340    342      1
   409    341    343      1
   410    342    344      1
   411    343   2677      1
   412    346    347      1
   413    347    348      1
   414    348    349      1
   415    349    745      1
   416    351    353      1
   417    353    354      1
   418    353    355      1
   419    355    360      1
   420    357    358      1
   421    359    362      1
   422    360    361      1
   423    360    362      1
   424    362    364      1
   425    363    366      1
   426    364    365      1
   427    364    366      1
   428    364    367      1
   429    365    760      1
   430    366    368      1
   431    368    760      1
   432    369    370      1
   433    369   2704      1
   434    370    372      1
   435    371    372      1
   436    372    374      1
   437    373    375      1
   438    374    376      1
   439    374    770      1
   440    375    378      1
   441    375    769      1
   442    376    381      1
   443    377    379      1
   444    378    379      1
   445    378    382      1
   446    379    383      1
   447    380    381      1
   448    380    779      1
   449    381    384      1
   450    382    385      1
   451    382    776      1
   452    383    384      1
   453    384    387      1
   454    385    387      1
   455    385    388      1
   456    386    387      1
   457    386    779      1
   458    389    391      1
   459    390    391      1
   460    390    393      1
   461    391    396      1
   462    393    394      1
   463    393    398      1
   464    394    395      1
   465    394    445      1
   466    396    397      1
   467    398    447      1
   468    400    403      1
   469    400    451      1
   470    400    790      1
   471    401    452      1
   472    402    403      1
   473    402    404      1
   474    402    791      1
   475    403    407      1
   476    405    406      1
   477    406    408      1
   478    408    409      1
   479    408    456      1
   480    409    410      1
   481    409    411      1
   482    411    412      1
   483    411    413      1
   484    412    804      1
   485    413    414      1
   486    414    416      1
   487    414    469      1
   488    416    469      1
   489    417    419      1
   490    417    814      1
   491    418    419      1
   492    418    420      1
   493    418    421      1
   494    419    422      1
   495    420    423      1
   496    421    422      1
   497    422    817      1
   498    423    424      1
   499    425    427      1
   500    425    482      1
   501    426    427      1
   502    427    429      1
   503    428    429      1
   504    429    431      1
   505    430    432      1
   506    431    433      1
   507    431    434      1
   508    432    434      1
   509    432    832      1
   510    434    435      1
   511    435    487      1
   512    435    488      1
   513    436    836      1
   514    438    439      1
   515    439    441      1
   516    439    839      1
   517    440    443      1
   518    441    443      1
   519    444    445      1
   520    445    446      1
   521    446    447      1
   522    446    448      1
   523    447    449      1
   524    449    452      1
   525    450    453      1
   526    450    508      1
   527    450    854      1
   528    451    454      1
   529    451    857      1
   530    452    456      1
   531    453    454      1
   532    453    455      1
   533    454    457      1
   534    455    458      1
   535    455    512      1
   536    456    457      1
   537    457    459      1
   538    460    461      1
   539    460    462      1
   540    461    465      1
   541    462    464      1
   542    462    521      1
   543    463    464      1
   544    464    466      1
   545    466    523      1
   546    466    866      1
   547    467    864      1
   548    468    470      1
   549    469    470      1
   550    470    472      1
   551    471    472      1
   552    471    528      1
   553    472    473      1
   554    474    533      1
   555    475    477      1
   556    475    821      1
   557    476    478      1
   558    476    480      1
   559    476    537      1
   560    477    480      1
   561    477    482      1
   562    478    479      1
   563    478    879      1
   564    480    481      1
   565    482    483      1
   566    484    487      1
   567    484    832      1
   568    484    887      1
   569    485    489      1
   570    486    487      1
   571    488    489      1
   572    489    491      1
   573    490    491      1
   574    491    493      1
   575    492    933      1
   576    493    494      1
   577    494    495      1
   578    497    499      1
   579    498    500      1
   580    499    500      1
   581    499    501      1
   582    500    502      1
   583    500    555      1
   584    501    503      1
   585    501    504      1
   586    502    505      1
   587    502    560      1
   588    503    508      1
   589    503    850      1
   590    504    505      1
   591    504    506      1
   592    505    507      1
   593    506    510      1
   594    508    509      1
   595    509    511      1
   596    510    512      1
   597    511    514      1
   598    511    561      1
   599    513    515      1
   600    513    564      1
   601    514    515      1
   602    514    901      1
   603    515    567      1
   604    516    517      1
   605    516    567      1
   606    516    570      1
   607    516    901      1
   608    518    519      1
   609    519    520      1
   610    519    521      1
   611    521    522      1
   612    522    523      1
   613    522    524      1
   614    523    906      1
   615    524    526      1
   616    524    576      1
   617    526    527      1
   618    526    529      1
   619    527    528      1
   620    527    530      1
   621    529    580      1
   622    529    909      1
   623    531    910      1
   624    532    534      1
   625    533    534      1
   626    533    535      1
   627    534    536      1
   628    535    874      1
   629    535    915      1
   630    536    538      1
   631    538    590      1
   632    538    594      1
   633    539    540      1
   634    540    541      1
   635    541    542      1
   636    542    544      1
   637    542    598      1
   638    543    544      1
   639    544    545      1
   640    544    927      1
   641    546    547      1
   642    546    549      1
   643    547    548      1
   644    547    603      1
   645    548    550      1
   646    548    551      1
   647    549    551      1
   648    550    611      1
   649    550    935      1
   650    551    552      1
   651    551    553      1
   652    556    557      1
   653    557    614      1
   654    558    945      1
   655    559    945      1
   656    562    563      1
   657    562    564      1
   658    563    565      1
   659    564    566      1
   660    565    566      1
   661    565    625      1
   662    566    568      1
   663    567    568      1
   664    568    571      1
   665    569    960      1
   666    572    574      1
   667    572    575      1
   668    573    574      1
   669    574    576      1
   670    575    577      1
   671    575    633      1
   672    576    969      1
   673    577    578      1
   674    577   1023      1
   675    579    580      1
   676    580    581      1
   677    581    583      1
   678    582    583      1
   679    583    586      1
   680    584    585      1
   681    585    586      1
   682    585    978      1
   683    586    588      1
   684    587    588      1
   685    588    589      1
   686    589    591      1
   687    589    592      1
   688    590    591      1
   689    592    593      1
   690    592    595      1
   691    593    647      1
   692    593    981      1
   693    594    595      1
   694    595    596      1
   695    596    597      1
   696    596    598      1
   697    596    985      1
   698    598    601      1
   699    599    602      1
   700    599    652      1
   701    599    656      1
   702    600    601      1
   703    600    602      1
   704    601    603      1
   705    602    604      1
   706    603    605      1
   707    604    605      1
   708    604    606      1
   709    605    607      1
   710    606    609      1
   711    606    659      1
   712    607    608      1
   713    607    611      1
   714    608    610      1
   715    608    994      1
   716    609    612      1
   717    609    665      1
   718    610    612      1
   719    610    663      1
   720    611    613      1
   721    612    668      1
   722    616    618      1
   723    618    620      1
   724    618    681      1
   725    618   1003      1
   726    619    620      1
   727    620    621      1
   728    621    622      1
   729    622    623      1
   730    624    626      1
   731    625    628      1
   732    625    629      1
   733    626    629      1
   734    626   1015      1
   735    627    630      1
   736    627    688      1
   737    629    631      1
   738    630    632      1
   739    630    694      1
   740    634    699      1
   741    634   1020      1
   742    635    637      1
   743    636    637      1
   744    637    638      1
   745    639    640      1
   746    640    700      1
   747    640    701      1
   748    641    642      1
   749    641    643      1
   750    642   1029      1
   751    642   1030      1
   752    643    644      1
   753    644    645      1
   754    645    648      1
   755    646    647      1
   756    647   1034      1
   757    648    649      1
   758    649    650      1
   759    649    651      1
   760    650    653      1
   761    650   1038      1
   762    651    652      1
   763    651    655      1
   764    654    655      1
   765    654    720      1
   766    656    659      1
   767    657    658      1
   768    658    660      1
   769    658    662      1
   770    658    724      1
   771    659    661      1
   772    660    661      1
   773    661    665      1
   774    662    664      1
   775    662    726      1
   776    663    666      1
   777    663   1044      1
   778    664    666      1
   779    664    667      1
   780    666    669      1
   781    667   1050      1
   782    667   1109      1
   783    668    669      1
   784    668    672      1
   785    669    671      1
   786    670    673      1
   787    674    677      1
   788    675    676      1
   789    675    677      1
   790    676    730      1
   791    677    678      1
   792    678    679      1
   793    679    680      1
   794    679    683      1
   795    680    684      1
   796    682    735      1
   797    683    686      1
   798    684    685      1
   799    684   1064      1
   800    685    686      1
   801    685    688      1
   802    686    689      1
   803    687    691      1
   804    687    740      1
   805    687   1127      1
   806    688   1068      1
   807    689    690      1
   808    691    693      1
   809    691   1074      1
   810    692    694      1
   811    695    696      1
   812    695   1077      1
   813    695   1079      1
   814    696    698      1
   815    697    698      1
   816    698    699      1
   817    699   1079      1
   818    700    702      1
   819    701    703      1
   820    701   1029      1
   821    702    704      1
   822    703    704      1
   823    703   1086      1
   824    704    705      1
   825    705    706      1
   826    705    755      1
   827    707    709      1
   828    708    709      1
   829    709    710      1
   830    710    712      1
   831    710    713      1
   832    711    714      1
   833    711   1093      1
   834    713    715      1
   835    714    715      1
   836    714    716      1
   837    715    762      1
   838    717    718      1
   839    719   1099      1
   840    720    724      1
   841    721    722      1
   842    721    723      1
   843    722    724      1
   844    722    725      1
   845    723    769      1
   846    723    772      1
   847    727   1107      1
   848    727   1109      1
   849    730    733      1
   850    731    732      1
   851    732    733      1
   852    733   1120      1
   853    734    735      1
   854    735    736      1
   855    736    737      1
   856    736    739      1
   857    737    738      1
   858    739    740      1
   859    742    743      1
   860    742    744      1
   861    742   1131      1
   862    744    746      1
   863    745    747      1
   864    746    748      1
   865    747    749      1
   866    748    749      1
   867    748    751      1
   868    749    750      1
   869    751   1143      1
   870    752    754      1
   871    753    754      1
   872    753    755      1
   873    754    756      1
   874    755   1092      1
   875    756    758      1
   876    757   1154      1
   877    758    759      1
   878    758   1154      1
   879    759    761      1
   880    759   1157      1
   881    760    762      1
   882    762    763      1
   883    763    764      1
   884    763    765      1
   885    764   1159      1
   886    765    767      1
   887    765    769      1
   888    766    767      1
   889    767    770      1
   890    768    771      1
   891    771    772      1
   892    771    774      1
   893    772    775      1
   894    773    774      1
   895    774    777      1
   896    774   1169      1
   897    775    776      1
   898    775    780      1
   899    778    779      1
   900    781    783      1
   901    782    783      1
   902    783   1176      1
   903    784   1181      1
   904    785    786      1
   905    786    789      1
   906    787    788      1
   907    787    849      1
   908    787    853      1
   909    789    790      1
   910    789    791      1
   911    790    855      1
   912    792    793      1
   913    793   1194      1
   914    794    795      1
   915    795    796      1
   916    795    798      1
   917    796    797      1
   918    796    799      1
   919    796   1193      1
   920    797   1194      1
   921    797   1197      1
   922    798    800      1
   923    798    860      1
   924    801    804      1
   925    802   1202      1
   926    803    864      1
   927    804    805      1
   928    805    807      1
   929    805    808      1
   930    806    807      1
   931    807    809      1
   932    807    864      1
   933    810   1207      1
   934    811    871      1
   935    812    813      1
   936    814    871      1
   937    815    816      1
   938    816    872      1
   939    816    877      1
   940    816   1217      1
   941    817    819      1
   942    818    820      1
   943    819    821      1
   944    819    877      1
   945    820    822      1
   946    821    823      1
   947    822    826      1
   948    822   1221      1
   949    825    881      1
   950    825   1225      1
   951    826    827      1
   952    827   1226      1
   953    828    829      1
   954    829    830      1
   955    831    833      1
   956    832    833      1
   957    833    834      1
   958    833    889      1
   959    834    835      1
   960    834    836      1
   961    835    837      1
   962    835   1235      1
   963    836    838      1
   964    839    840      1
   965    839    895      1
   966    841    842      1
   967    843    845      1
   968    843    848      1
   969    844    896      1
   970    846    848      1
   971    846    849      1
   972    847    850      1
   973    847    896      1
   974    848    851      1
   975    849   1183      1
   976    850    852      1
   977    851    852      1
   978    851    853      1
   979    852    854      1
   980    853    855      1
   981    854    857      1
   982    855    857      1
   983    856   1256      1
   984    858    859      1
   985    858   1258      1
   986    858   1259      1
   987    859    860      1
   988    860    861      1
   989    861    862      1
   990    861    863      1
   991    862    865      1
   992    862   1264      1
   993    863    864      1
   994    863    866      1
   995    865    866      1
   996    865    907      1
   997    866    867      1
   998    867    868      1
   999    867    869      1
  1000    868    870      1
  1001    868    907      1
  1002    869    871      1
  1003    873    876      1
  1004    874    875      1
  1005    875    876      1
  1006    876    877      1
  1007    877    878      1
  1008    879    880      1
  1009    879    919      1
  1010    880    882      1
  1011    880    883      1
  1012    881    882      1
  1013    882   1284      1
  1014    883    884      1
  1015    883    924      1
  1016    885   1288      1
  1017    885   1290      1
  1018    885   1291      1
  1019    886    931      1
  1020    887    888      1
  1021    887    889      1
  1022    889    890      1
  1023    890    891      1
  1024    890    892      1
  1025    891    893      1
  1026    891   1294      1
  1027    893    937      1
  1028    894    895      1
  1029    897    898      1
  1030    897    942      1
  1031    898    899      1
  1032    898    947      1
  1033    900    902      1
  1034    901    902      1
  1035    902    904      1
  1036    903    904      1
  1037    905    907      1
  1038    908    913      1
  1039    908    974      1
  1040    908   1324      1
  1041    909    910      1
  1042    909    976      1
  1043    910    911      1
  1044    911    912      1
  1045    911    914      1
  1046    913    914      1
  1047    913   1329      1
  1048    914    976      1
  1049    915    916      1
  1050    915    919      1
  1051    916    917      1
  1052    917    979      1
  1053    918    920      1
  1054    918   1331      1
  1055    919    920      1
  1056    920    921      1
  1057    921    922      1
  1058    921    923      1
  1059    923    925      1
  1060    923   1337      1
  1061    924    927      1
  1062    925    928      1
  1063    925    929      1
  1064    926    928      1
  1065    927    928      1
  1066    927    931      1
  1067    928    930      1
  1068    929   1343      1
  1069    931    932      1
  1070    932    933      1
  1071    933    937      1
  1072    934    936      1
  1073    934   1346      1
  1074    935    938      1
  1075    935    993      1
  1076    936    938      1
  1077    936    996      1
  1078    937    939      1
  1079    938    940      1
  1080    939    941      1
  1081    940    941      1
  1082    942    997      1
  1083    943    945      1
  1084    943    998      1
  1085    943   1001      1
  1086    944    946      1
  1087    945    949      1
  1088    946    947      1
  1089    946    949      1
  1090    947   1357      1
  1091    948   1006      1
  1092    949    950      1
  1093    951   1008      1
  1094    952    953      1
  1095    953    954      1
  1096    953   1361      1
  1097    954    955      1
  1098    954   1008      1
  1099    955    956      1
  1100    955    957      1
  1101    957    959      1
  1102    957    960      1
  1103    958    959      1
  1104    959    961      1
  1105    960    962      1
  1106    961    962      1
  1107    961    963      1
  1108    962    965      1
  1109    964   1372      1
  1110    965    966      1
  1111    965    967      1
  1112    966    970      1
  1113    966   1018      1
  1114    967    968      1
  1115    967    969      1
  1116    970    972      1
  1117    970   1024      1
  1118    971    972      1
  1119    971   1374      1
  1120    971   1375      1
  1121    972    973      1
  1122    975    977      1
  1123    977   1027      1
  1124    978    979      1
  1125    979    980      1
  1126    981    984      1
  1127    981   1037      1
  1128    982    983      1
  1129    982   1439      1
  1130    983    984      1
  1131    983    986      1
  1132    984    987      1
  1133    986    989      1
  1134    986   1387      1
  1135    986   1388      1
  1136    987    990      1
  1137    988   1388      1
  1138    991    993      1
  1139    992    994      1
  1140    993    994      1
  1141    995   1449      1
  1142    998   1001      1
  1143   1000   1405      1
  1144   1001   1002      1
  1145   1002   1003      1
  1146   1003   1005      1
  1147   1004   1006      1
  1148   1005   1057      1
  1149   1006   1007      1
  1150   1006   1408      1
  1151   1007   1008      1
  1152   1007   1010      1
  1153   1008   1009      1
  1154   1010   1413      1
  1155   1011   1013      1
  1156   1011   1068      1
  1157   1012   1013      1
  1158   1012   1014      1
  1159   1012   1413      1
  1160   1013   1015      1
  1161   1014   1016      1
  1162   1014   1372      1
  1163   1015   1016      1
  1164   1015   1017      1
  1165   1016   1018      1
  1166   1018   1019      1
  1167   1020   1021      1
  1168   1020   1023      1
  1169   1021   1022      1
  1170   1021   1082      1
  1171   1022   1025      1
  1172   1022   1083      1
  1173   1023   1024      1
  1174   1024   1026      1
  1175   1025   1026      1
  1176   1025   1431      1
  1177   1026   1027      1
  1178   1027   1432      1
  1179   1028   1029      1
  1180   1030   1031      1
  1181   1030   1091      1
  1182   1031   1032      1
  1183   1031   1091      1
  1184   1032   1033      1
  1185   1032   1034      1
  1186   1032   1036      1
  1187   1033   1035      1
  1188   1033   1437      1
  1189   1034   1037      1
  1190   1035   1037      1
  1191   1035   1439      1
  1192   1038   1097      1
  1193   1039   1040      1
  1194   1039   1489      1
  1195   1039   1494      1
  1196   1040   1041      1
  1197   1042   1043      1
  1198   1043   1046      1
  1199   1043   1448      1
  1200   1045   1046      1
  1201   1046   1047      1
  1202   1047   1048      1
  1203   1047   1049      1
  1204   1049   1051      1
  1205   1049   1452      1
  1206   1052   1111      1
  1207   1052   1179      1
  1208   1054   1056      1
  1209   1054   1117      1
  1210   1054   1455      1
  1211   1055   1057      1
  1212   1057   1058      1
  1213   1057   1405      1
  1214   1058   1060      1
  1215   1058   1062      1
  1216   1059   1060      1
  1217   1060   1061      1
  1218   1061   1063      1
  1219   1061   1064      1
  1220   1062   1065      1
  1221   1062   1460      1
  1222   1064   1066      1
  1223   1065   1067      1
  1224   1065   1462      1
  1225   1066   1067      1
  1226   1066   1068      1
  1227   1067   1071      1
  1228   1069   1070      1
  1229   1070   1072      1
  1230   1070   1130      1
  1231   1070   1464      1
  1232   1071   1072      1
  1233   1071   1073      1
  1234   1075   1078      1
  1235   1076   1077      1
  1236   1077   1078      1
  1237   1078   1080      1
  1238   1078   1081      1
  1239   1079   1082      1
  1240   1080   1082      1
  1241   1080   1083      1
  1242   1081   1084      1
  1243   1081   1085      1
  1244   1081   1138      1
  1245   1083   1472      1
  1246   1083   1476      1
  1247   1087   1088      1
  1248   1088   1089      1
  1249   1088   1479      1
  1250   1089   1091      1
  1251   1090   1092      1
  1252   1092   1093      1
  1253   1092   1151      1
  1254   1093   1094      1
  1255   1094   1095      1
  1256   1095   1096      1
  1257   1095   1482      1
  1258   1097   1099      1
  1259   1098   1490      1
  1260   1099   1100      1
  1261   1100   1101      1
  1262   1100   1161      1
  1263   1102   1163      1
  1264   1103   1494      1
  1265   1104   1105      1
  1266   1104   1170      1
  1267   1104   1497      1
  1268   1105   1106      1
  1269   1106   1107      1
  1270   1106   1171      1
  1271   1108   1111      1
  1272   1109   1112      1
  1273   1110   1177      1
  1274   1111   1113      1
  1275   1114   1115      1
  1276   1114   1116      1
  1277   1115   1509      1
  1278   1116   1117      1
  1279   1117   1118      1
  1280   1117   1510      1
  1281   1119   1121      1
  1282   1121   1122      1
  1283   1122   1123      1
  1284   1123   1124      1
  1285   1123   1125      1
  1286   1124   1126      1
  1287   1124   1127      1
  1288   1125   1128      1
  1289   1129   1130      1
  1290   1129   1133      1
  1291   1129   1524      1
  1292   1130   1134      1
  1293   1132   1133      1
  1294   1133   1137      1
  1295   1133   1529      1
  1296   1134   1135      1
  1297   1134   1137      1
  1298   1136   1137      1
  1299   1137   1138      1
  1300   1138   1141      1
  1301   1139   1140      1
  1302   1139   1142      1
  1303   1140   1141      1
  1304   1141   1536      1
  1305   1142   1143      1
  1306   1143   1144      1
  1307   1146   1148      1
  1308   1146   1150      1
  1309   1147   1149      1
  1310   1148   1149      1
  1311   1148   1538      1
  1312   1149   1151      1
  1313   1150   1152      1
  1314   1151   1153      1
  1315   1152   1153      1
  1316   1153   1154      1
  1317   1155   1156      1
  1318   1155   1547      1
  1319   1156   1158      1
  1320   1156   1547      1
  1321   1157   1160      1
  1322   1159   1160      1
  1323   1159   1161      1
  1324   1160   1162      1
  1325   1161   1163      1
  1326   1162   1164      1
  1327   1163   1164      1
  1328   1164   1165      1
  1329   1165   1554      1
  1330   1165   1556      1
  1331   1167   1169      1
  1332   1168   1169      1
  1333   1169   1173      1
  1334   1170   1171      1
  1335   1170   1560      1
  1336   1171   1172      1
  1337   1172   1173      1
  1338   1172   1174      1
  1339   1174   1560      1
  1340   1174   1562      1
  1341   1175   1178      1
  1342   1176   1177      1
  1343   1176   1178      1
  1344   1177   1179      1
  1345   1180   1181      1
  1346   1181   1184      1
  1347   1182   1183      1
  1348   1183   1186      1
  1349   1186   1187      1
  1350   1187   1188      1
  1351   1187   1189      1
  1352   1187   1253      1
  1353   1188   1576      1
  1354   1188   1579      1
  1355   1190   1191      1
  1356   1192   1579      1
  1357   1195   1200      1
  1358   1196   1200      1
  1359   1197   1202      1
  1360   1198   1201      1
  1361   1198   1262      1
  1362   1199   1529      1
  1363   1200   1201      1
  1364   1200   1591      1
  1365   1201   1202      1
  1366   1201   1203      1
  1367   1203   1205      1
  1368   1203   1268      1
  1369   1204   1591      1
  1370   1206   1207      1
  1371   1207   1209      1
  1372   1208   1209      1
  1373   1208   1210      1
  1374   1209   1211      1
  1375   1210   1212      1
  1376   1210   1597      1
  1377   1212   1214      1
  1378   1213   1214      1
  1379   1214   1215      1
  1380   1215   1216      1
  1381   1215   1602      1
  1382   1216   1217      1
  1383   1218   1220      1
  1384   1219   1607      1
  1385   1220   1221      1
  1386   1220   1222      1
  1387   1221   1225      1
  1388   1222   1224      1
  1389   1223   1551      1
  1390   1224   1227      1
  1391   1224   1611      1
  1392   1225   1226      1
  1393   1226   1228      1
  1394   1227   1228      1
  1395   1227   1230      1
  1396   1228   1229      1
  1397   1229   1290      1
  1398   1230   1231      1
  1399   1230   1617      1
  1400   1231   1232      1
  1401   1232   1234      1
  1402   1233   1235      1
  1403   1234   1236      1
  1404   1234   1237      1
  1405   1235   1236      1
  1406   1236   1238      1
  1407   1237   1296      1
  1408   1239   1241      1
  1409   1239   1626      1
  1410   1240   1241      1
  1411   1241   1242      1
  1412   1242   1243      1
  1413   1243   1298      1
  1414   1244   1299      1
  1415   1245   1247      1
  1416   1246   1248      1
  1417   1247   1248      1
  1418   1247   1250      1
  1419   1248   1249      1
  1420   1249   1305      1
  1421   1250   1252      1
  1422   1250   1628      1
  1423   1251   1253      1
  1424   1252   1255      1
  1425   1252   1629      1
  1426   1253   1254      1
  1427   1253   1630      1
  1428   1254   1255      1
  1429   1254   1256      1
  1430   1255   1257      1
  1431   1256   1258      1
  1432   1257   1258      1
  1433   1257   1312      1
  1434   1259   1261      1
  1435   1259   1312      1
  1436   1260   1262      1
  1437   1261   1264      1
  1438   1261   1316      1
  1439   1262   1263      1
  1440   1265   1266      1
  1441   1265   1267      1
  1442   1265   1316      1
  1443   1267   1269      1
  1444   1269   1271      1
  1445   1270   1272      1
  1446   1271   1274      1
  1447   1271   1326      1
  1448   1272   1273      1
  1449   1272   1274      1
  1450   1272   1275      1
  1451   1274   1276      1
  1452   1276   1327      1
  1453   1277   1278      1
  1454   1278   1279      1
  1455   1278   1280      1
  1456   1278   1648      1
  1457   1280   1332      1
  1458   1281   1283      1
  1459   1282   1283      1
  1460   1282   1284      1
  1461   1283   1285      1
  1462   1284   1287      1
  1463   1285   1286      1
  1464   1285   1659      1
  1465   1286   1287      1
  1466   1286   1289      1
  1467   1287   1288      1
  1468   1289   1341      1
  1469   1289   1663      1
  1470   1292   1341      1
  1471   1292   1345      1
  1472   1293   1294      1
  1473   1294   1297      1
  1474   1294   1345      1
  1475   1295   1296      1
  1476   1295   1299      1
  1477   1296   1298      1
  1478   1297   1300      1
  1479   1297   1348      1
  1480   1298   1675      1
  1481   1299   1300      1
  1482   1300   1301      1
  1483   1302   1303      1
  1484   1302   1351      1
  1485   1302   1676      1
  1486   1303   1356      1
  1487   1303   1679      1
  1488   1304   1305      1
  1489   1305   1307      1
  1490   1306   1308      1
  1491   1306   1356      1
  1492   1306   1360      1
  1493   1306   1362      1
  1494   1307   1309      1
  1495   1308   1310      1
  1496   1308   1684      1
  1497   1309   1311      1
  1498   1310   1311      1
  1499   1310   1688      1
  1500   1311   1313      1
  1501   1312   1313      1
  1502   1313   1315      1
  1503   1314   1317      1
  1504   1315   1316      1
  1505   1315   1692      1
  1506   1317   1318      1
  1507   1318   1319      1
  1508   1319   1320      1
  1509   1319   1699      1
  1510   1320   1321      1
  1511   1320   1323      1
  1512   1321   1324      1
  1513   1321   1374      1
  1514   1322   1323      1
  1515   1323   1325      1
  1516   1324   1325      1
  1517   1325   1326      1
  1518   1326   1327      1
  1519   1327   1328      1
  1520   1328   1330      1
  1521   1329   1330      1
  1522   1329   1379      1
  1523   1330   1331      1
  1524   1331   1333      1
  1525   1332   1334      1
  1526   1333   1335      1
  1527   1333   1381      1
  1528   1334   1335      1
  1529   1334   1336      1
  1530   1335   1339      1
  1531   1338   1339      1
  1532   1339   1340      1
  1533   1342   1343      1
  1534   1343   1344      1
  1535   1345   1346      1
  1536   1347   1348      1
  1537   1347   1669      1
  1538   1348   1350      1
  1539   1349   1720      1
  1540   1352   1353      1
  1541   1354   1356      1
  1542   1355   1356      1
  1543   1358   1359      1
  1544   1358   1407      1
  1545   1358   1777      1
  1546   1359   1362      1
  1547   1361   1408      1
  1548   1362   1363      1
  1549   1363   1365      1
  1550   1364   1366      1
  1551   1365   1366      1
  1552   1365   1367      1
  1553   1366   1368      1
  1554   1366   1370      1
  1555   1368   1369      1
  1556   1369   1372      1
  1557   1370   1373      1
  1558   1370   1417      1
  1559   1371   1735      1
  1560   1372   1421      1
  1561   1373   1735      1
  1562   1373   1737      1
  1563   1375   1424      1
  1564   1376   1377      1
  1565   1377   1379      1
  1566   1377   1380      1
  1567   1378   1380      1
  1568   1379   1381      1
  1569   1380   1382      1
  1570   1381   1382      1
  1571   1382   1383      1
  1572   1383   1384      1
  1573   1383   1753      1
  1574   1385   1386      1
  1575   1386   1389      1
  1576   1386   1444      1
  1577   1388   1389      1
  1578   1389   1392      1
  1579   1390   1392      1
  1580   1390   1761      1
  1581   1390   1764      1
  1582   1391   1392      1
  1583   1393   1449      1
  1584   1394   1396      1
  1585   1395   1398      1
  1586   1396   1398      1
  1587   1396   1399      1
  1588   1397   1398      1
  1589   1397   1452      1
  1590   1401   1402      1
  1591   1401   1404      1
  1592   1402   1403      1
  1593   1403   1406      1
  1594   1405   1406      1
  1595   1406   1457      1
  1596   1407   1408      1
  1597   1409   1411      1
  1598   1410   1412      1
  1599   1411   1412      1
  1600   1411   1780      1
  1601   1412   1414      1
  1602   1413   1415      1
  1603   1414   1416      1
  1604   1416   1417      1
  1605   1417   1420      1
  1606   1417   1788      1
  1607   1418   1422      1
  1608   1418   1465      1
  1609   1418   1790      1
  1610   1419   1467      1
  1611   1420   1421      1
  1612   1420   1423      1
  1613   1421   1424      1
  1614   1422   1423      1
  1615   1422   1467      1
  1616   1423   1425      1
  1617   1424   1426      1
  1618   1425   1426      1
  1619   1425   1427      1
  1620   1426   1428      1
  1621   1427   1430      1
  1622   1427   1475      1
  1623   1429   1431      1
  1624   1430   1433      1
  1625   1431   1432      1
  1626   1432   1435      1
  1627   1433   1799      1
  1628   1433   1801      1
  1629   1434   1435      1
  1630   1435   1437      1
  1631   1436   1479      1
  1632   1438   1439      1
  1633   1440   1489      1
  1634   1441   1442      1
  1635   1441   1443      1
  1636   1441   1812      1
  1637   1442   1488      1
  1638   1442   1815      1
  1639   1443   1444      1
  1640   1443   1445      1
  1641   1445   1446      1
  1642   1445   1819      1
  1643   1447   1448      1
  1644   1448   1449      1
  1645   1449   1452      1
  1646   1450   1500      1
  1647   1451   1453      1
  1648   1453   1504      1
  1649   1453   1828      1
  1650   1453   1832      1
  1651   1454   1455      1
  1652   1454   1507      1
  1653   1455   1456      1
  1654   1456   1457      1
  1655   1457   1458      1
  1656   1459   1461      1
  1657   1461   1462      1
  1658   1461   1518      1
  1659   1461   1521      1
  1660   1462   1464      1
  1661   1463   1521      1
  1662   1463   1843      1
  1663   1463   1897      1
  1664   1464   1524      1
  1665   1466   1468      1
  1666   1467   1469      1
  1667   1468   1469      1
  1668   1468   1471      1
  1669   1469   1470      1
  1670   1471   1474      1
  1671   1471   1532      1
  1672   1473   1475      1
  1673   1475   1790      1
  1674   1475   1858      1
  1675   1477   1478      1
  1676   1478   1479      1
  1677   1478   1481      1
  1678   1479   1482      1
  1679   1480   1481      1
  1680   1481   1483      1
  1681   1482   1483      1
  1682   1483   1484      1
  1683   1484   1486      1
  1684   1484   1547      1
  1685   1485   1488      1
  1686   1486   1490      1
  1687   1486   1552      1
  1688   1487   1488      1
  1689   1488   1491      1
  1690   1489   1491      1
  1691   1490   1492      1
  1692   1491   1493      1
  1693   1492   1496      1
  1694   1492   1555      1
  1695   1493   1494      1
  1696   1493   1496      1
  1697   1495   1555      1
  1698   1496   1497      1
  1699   1496   1498      1
  1700   1498   1499      1
  1701   1498   1877      1
  1702   1499   1500      1
  1703   1499   1502      1
  1704   1500   1501      1
  1705   1501   1828      1
  1706   1501   1878      1
  1707   1503   1505      1
  1708   1505   1566      1
  1709   1506   1508      1
  1710   1507   1508      1
  1711   1507   1510      1
  1712   1508   1512      1
  1713   1509   1511      1
  1714   1510   1511      1
  1715   1511   1513      1
  1716   1512   1514      1
  1717   1512   1886      1
  1718   1513   1514      1
  1719   1513   1517      1
  1720   1514   1515      1
  1721   1514   1890      1
  1722   1516   1517      1
  1723   1517   1519      1
  1724   1520   1893      1
  1725   1520   1898      1
  1726   1521   1523      1
  1727   1523   1524      1
  1728   1523   1525      1
  1729   1526   1528      1
  1730   1527   1530      1
  1731   1528   1530      1
  1732   1528   1904      1
  1733   1529   1530      1
  1734   1530   1531      1
  1735   1532   1534      1
  1736   1534   1537      1
  1737   1534   1906      1
  1738   1535   1536      1
  1739   1536   1538      1
  1740   1537   1539      1
  1741   1538   1540      1
  1742   1539   1540      1
  1743   1539   1910      1
  1744   1540   1541      1
  1745   1541   1542      1
  1746   1541   1543      1
  1747   1543   1544      1
  1748   1543   1914      1
  1749   1544   1546      1
  1750   1544   1549      1
  1751   1545   1548      1
  1752   1548   1550      1
  1753   1548   1552      1
  1754   1548   1921      1
  1755   1549   1550      1
  1756   1549   1551      1
  1757   1550   1926      1
  1758   1552   1553      1
  1759   1553   1555      1
  1760   1553   1926      1
  1761   1556   1557      1
  1762   1558   1559      1
  1763   1558   1560      1
  1764   1561   1563      1
  1765   1562   1564      1
  1766   1562   1565      1
  1767   1563   1567      1
  1768   1563   1935      1
  1769   1566   1567      1
  1770   1568   1570      1
  1771   1568   1939      1
  1772   1569   1571      1
  1773   1570   1571      1
  1774   1570   1572      1
  1775   1571   1573      1
  1776   1571   1574      1
  1777   1572   1941      1
  1778   1574   1575      1
  1779   1574   1576      1
  1780   1577   1580      1
  1781   1578   1583      1
  1782   1579   1582      1
  1783   1579   1630      1
  1784   1580   1581      1
  1785   1580   1582      1
  1786   1580   1584      1
  1787   1583   1584      1
  1788   1584   1586      1
  1789   1585   1588      1
  1790   1586   1588      1
  1791   1586   1956      1
  1792   1587   1900      1
  1793   1588   1589      1
  1794   1588   1636      1
  1795   1590   1593      1
  1796   1590   1956      1
  1797   1590   1961      1
  1798   1591   1592      1
  1799   1592   1593      1
  1800   1593   1594      1
  1801   1594   1595      1
  1802   1594   1596      1
  1803   1598   1601      1
  1804   1599   1600      1
  1805   1600   1602      1
  1806   1600   1603      1
  1807   1601   1603      1
  1808   1601   1973      1
  1809   1602   1605      1
  1810   1603   1604      1
  1811   1605   1607      1
  1812   1605   1652      1
  1813   1606   1608      1
  1814   1607   1611      1
  1815   1607   1655      1
  1816   1608   1609      1
  1817   1608   1610      1
  1818   1609   1613      1
  1819   1610   1611      1
  1820   1610   1612      1
  1821   1613   1614      1
  1822   1613   1981      1
  1823   1614   1616      1
  1824   1615   1617      1
  1825   1615   1618      1
  1826   1615   1661      1
  1827   1616   1617      1
  1828   1618   1620      1
  1829   1618   1662      1
  1830   1620   1621      1
  1831   1620   1986      1
  1832   1621   1622      1
  1833   1621   1623      1
  1834   1622   1623      1
  1835   1623   1624      1
  1836   1624   1625      1
  1837   1624   1995      1
  1838   1629   1631      1
  1839   1629   1632      1
  1840   1630   1632      1
  1841   1631   1687      1
  1842   1632   1633      1
  1843   1634   1693      1
  1844   1635   1638      1
  1845   1636   1638      1
  1846   1636   1640      1
  1847   1637   1639      1
  1848   1637   1695      1
  1849   1638   1639      1
  1850   1639   1641      1
  1851   1640   1958      1
  1852   1640   2019      1
  1853   1641   1642      1
  1854   1641   2019      1
  1855   1642   1643      1
  1856   1643   1644      1
  1857   1643   2023      1
  1858   1644   1646      1
  1859   1645   1646      1
  1860   1646   1648      1
  1861   1647   1649      1
  1862   1648   1651      1
  1863   1648   1705      1
  1864   1649   1651      1
  1865   1649   1652      1
  1866   1650   2030      1
  1867   1651   1653      1
  1868   1652   1654      1
  1869   1653   1656      1
  1870   1656   1657      1
  1871   1656   1707      1
  1872   1658   1659      1
  1873   1659   1663      1
  1874   1660   1662      1
  1875   1662   2040      1
  1876   1663   1664      1
  1877   1665   1667      1
  1878   1666   1667      1
  1879   1666   1715      1
  1880   1667   1668      1
  1881   1668   1670      1
  1882   1669   1672      1
  1883   1669   1717      1
  1884   1670   1671      1
  1885   1670   1673      1
  1886   1672   1674      1
  1887   1672   1675      1
  1888   1673   1674      1
  1889   1674   1721      1
  1890   1677   2051      1
  1891   1677   2053      1
  1892   1678   1679      1
  1893   1679   1680      1
  1894   1679   1726      1
  1895   1680   1681      1
  1896   1680   1682      1
  1897   1680   1684      1
  1898   1682   1683      1
  1899   1682   1685      1
  1900   1682   2054      1
  1901   1683   2056      1
  1902   1683   2060      1
  1903   1684   1686      1
  1904   1685   1686      1
  1905   1685   2062      1
  1906   1685   2117      1
  1907   1686   1729      1
  1908   1687   1688      1
  1909   1688   1690      1
  1910   1689   1690      1
  1911   1690   1691      1
  1912   1690   1692      1
  1913   1692   1697      1
  1914   1693   1695      1
  1915   1693   2069      1
  1916   1694   1734      1
  1917   1695   1697      1
  1918   1696   1698      1
  1919   1697   1699      1
  1920   1698   1701      1
  1921   1698   2071      1
  1922   1699   1700      1
  1923   1701   1702      1
  1924   1701   2076      1
  1925   1702   1739      1
  1926   1703   1704      1
  1927   1703   1745      1
  1928   1704   2078      1
  1929   1706   1709      1
  1930   1706   2086      1
  1931   1706   2149      1
  1932   1707   1708      1
  1933   1708   1709      1
  1934   1709   1710      1
  1935   1710   1759      1
  1936   1711   1714      1
  1937   1712   1713      1
  1938   1713   1714      1
  1939   1713   1715      1
  1940   1714   1716      1
  1941   1716   1767      1
  1942   1718   2101      1
  1943   1719   1720      1
  1944   1720   1769      1
  1945   1721   1722      1
  1946   1723   1724      1
  1947   1723   1772      1
  1948   1724   1725      1
  1949   1724   1773      1
  1950   1727   1728      1
  1951   1727   1730      1
  1952   1727   2119      1
  1953   1728   1782      1
  1954   1728   2122      1
  1955   1729   1730      1
  1956   1730   1731      1
  1957   1731   1732      1
  1958   1731   1733      1
  1959   1732   1782      1
  1960   1732   1784      1
  1961   1732   1785      1
  1962   1733   1734      1
  1963   1734   1735      1
  1964   1735   1736      1
  1965   1737   1738      1
  1966   1737   1788      1
  1967   1738   1740      1
  1968   1738   1741      1
  1969   1739   1743      1
  1970   1740   1742      1
  1971   1740   1792      1
  1972   1741   1743      1
  1973   1741   1744      1
  1974   1743   1745      1
  1975   1744   1746      1
  1976   1744   1795      1
  1977   1745   1747      1
  1978   1746   1747      1
  1979   1746   1749      1
  1980   1747   1748      1
  1981   1749   1798      1
  1982   1750   1751      1
  1983   1751   1753      1
  1984   1751   1754      1
  1985   1752   1754      1
  1986   1752   1810      1
  1987   1752   2147      1
  1988   1754   1755      1
  1989   1755   1756      1
  1990   1755   1758      1
  1991   1757   1760      1
  1992   1758   1760      1
  1993   1758   1818      1
  1994   1759   1761      1
  1995   1760   2157      1
  1996   1762   1763      1
  1997   1762   1818      1
  1998   1762   1821      1
  1999   1762   2160      1
  2000   1764   1766      1
  2001   1765   2160      1
  2002   1766   1823      1
  2003   1767   1768      1
  2004   1768   1769      1
  2005   1768   2163      1
  2006   1769   1770      1
  2007   1773   1774      1
  2008   1773   1776      1
  2009   1774   1775      1
  2010   1774   2169      1
  2011   1775   1778      1
  2012   1775   2172      1
  2013   1776   1777      1
  2014   1776   1778      1
  2015   1778   1779      1
  2016   1779   1781      1
  2017   1779   1782      1
  2018   1780   1781      1
  2019   1780   1845      1
  2020   1781   1783      1
  2021   1785   1786      1
  2022   1785   2128      1
  2023   1786   1787      1
  2024   1786   2184      1
  2025   1787   1788      1
  2026   1787   1789      1
  2027   1789   1790      1
  2028   1789   1791      1
  2029   1791   1856      1
  2030   1791   2189      1
  2031   1792   1793      1
  2032   1792   2188      1
  2033   1793   2196      1
  2034   1794   1795      1
  2035   1795   1798      1
  2036   1796   2196      1
  2037   1797   1800      1
  2038   1797   2196      1
  2039   1797   2197      1
  2040   1798   1801      1
  2041   1801   1804      1
  2042   1802   1805      1
  2043   1803   2199      1
  2044   1804   1806      1
  2045   1804   1808      1
  2046   1805   1808      1
  2047   1805   1866      1
  2048   1807   1809      1
  2049   1808   1812      1
  2050   1809   1810      1
  2051   1809   2202      1
  2052   1810   1811      1
  2053   1812   1813      1
  2054   1813   1814      1
  2055   1813   1815      1
  2056   1814   1816      1
  2057   1814   1817      1
  2058   1815   1871      1
  2059   1815   1873      1
  2060   1816   1818      1
  2061   1817   1872      1
  2062   1817   2208      1
  2063   1819   1873      1
  2064   1820   1821      1
  2065   1821   1822      1
  2066   1821   2211      1
  2067   1822   1823      1
  2068   1822   1824      1
  2069   1822   1825      1
  2070   1823   1827      1
  2071   1824   2216      1
  2072   1825   1826      1
  2073   1825   1829      1
  2074   1826   1828      1
  2075   1826   1883      1
  2076   1827   1830      1
  2077   1829   1831      1
  2078   1829   2220      1
  2079   1830   1832      1
  2080   1831   1883      1
  2081   1831   2289      1
  2082   1833   1836      1
  2083   1834   2226      1
  2084   1835   1838      1
  2085   1836   1839      1
  2086   1836   1886      1
  2087   1837   2229      1
  2088   1838   1839      1
  2089   1838   1840      1
  2090   1839   1842      1
  2091   1840   1844      1
  2092   1840   2229      1
  2093   1841   1843      1
  2094   1842   1843      1
  2095   1842   1845      1
  2096   1844   1845      1
  2097   1844   1846      1
  2098   1845   1848      1
  2099   1846   1847      1
  2100   1846   2233      1
  2101   1847   1849      1
  2102   1847   1851      1
  2103   1848   1850      1
  2104   1848   1851      1
  2105   1851   1852      1
  2106   1852   1853      1
  2107   1852   1854      1
  2108   1854   1855      1
  2109   1855   1857      1
  2110   1855   2248      1
  2111   1856   1857      1
  2112   1856   1858      1
  2113   1858   1859      1
  2114   1859   1860      1
  2115   1860   1861      1
  2116   1860   1862      1
  2117   1861   1863      1
  2118   1861   2260      1
  2119   1863   1864      1
  2120   1863   1912      1
  2121   1865   1918      1
  2122   1866   1867      1
  2123   1867   1868      1
  2124   1868   1869      1
  2125   1868   2271      1
  2126   1869   1870      1
  2127   1869   1922      1
  2128   1870   2277      1
  2129   1873   1874      1
  2130   1875   2280      1
  2131   1876   1877      1
  2132   1877   1878      1
  2133   1878   1879      1
  2134   1878   1880      1
  2135   1879   1881      1
  2136   1879   1883      1
  2137   1881   1882      1
  2138   1882   2342      1
  2139   1883   1884      1
  2140   1887   1888      1
  2141   1887   2296      1
  2142   1888   1892      1
  2143   1889   1891      1
  2144   1889   1892      1
  2145   1889   2296      1
  2146   1890   1893      1
  2147   1892   1894      1
  2148   1893   1894      1
  2149   1894   1895      1
  2150   1895   1896      1
  2151   1895   1898      1
  2152   1896   1899      1
  2153   1899   2311      1
  2154   1902   2245      1
  2155   1903   1904      1
  2156   1904   1905      1
  2157   1907   1909      1
  2158   1908   1909      1
  2159   1909   1910      1
  2160   1909   1911      1
  2161   1910   1913      1
  2162   1910   1914      1
  2163   1911   1912      1
  2164   1911   1915      1
  2165   1914   1916      1
  2166   1915   1916      1
  2167   1915   1917      1
  2168   1915   1918      1
  2169   1916   1919      1
  2170   1917   1920      1
  2171   1917   2326      1
  2172   1918   1922      1
  2173   1918   2327      1
  2174   1919   1920      1
  2175   1922   1924      1
  2176   1923   1924      1
  2177   1924   1925      1
  2178   1925   1926      1
  2179   1927   1928      1
  2180   1927   1929      1
  2181   1927   2336      1
  2182   1930   1932      1
  2183   1931   2340      1
  2184   1932   1933      1
  2185   1933   1934      1
  2186   1933   1936      1
  2187   1936   1937      1
  2188   1936   1938      1
  2189   1939   1941      1
  2190   1939   1999      1
  2191   1940   1942      1
  2192   1940   1999      1
  2193   1943   1946      1
  2194   1944   1945      1
  2195   1945   1946      1
  2196   1945   1948      1
  2197   1946   2356      1
  2198   1948   1949      1
  2199   1949   1950      1
  2200   1949   1951      1
  2201   1950   2301      1
  2202   1950   2306      1
  2203   1952   2008      1
  2204   1953   2009      1
  2205   1954   1957      1
  2206   1955   1956      1
  2207   1957   2016      1
  2208   1957   2364      1
  2209   1957   2369      1
  2210   1959   2369      1
  2211   1960   1961      1
  2212   1961   1962      1
  2213   1962   1963      1
  2214   1962   1965      1
  2215   1964   1965      1
  2216   1964   1966      1
  2217   1965   1968      1
  2218   1967   1968      1
  2219   1968   1969      1
  2220   1968   2373      1
  2221   1970   1972      1
  2222   1970   2375      1
  2223   1971   2029      1
  2224   1972   1973      1
  2225   1973   1974      1
  2226   1975   1977      1
  2227   1976   1977      1
  2228   1977   1980      1
  2229   1977   2035      1
  2230   1978   1979      1
  2231   1979   1983      1
  2232   1979   2382      1
  2233   1980   1983      1
  2234   1980   2037      1
  2235   1981   1984      1
  2236   1982   1984      1
  2237   1983   1984      1
  2238   1983   1985      1
  2239   1984   1986      1
  2240   1986   1987      1
  2241   1987   1988      1
  2242   1987   1990      1
  2243   1988   1989      1
  2244   1988   1992      1
  2245   1989   1994      1
  2246   1990   1991      1
  2247   1991   1992      1
  2248   1992   1993      1
  2249   1993   1994      1
  2250   1993   2391      1
  2251   1994   2045      1
  2252   1996   1997      1
  2253   1996   2391      1
  2254   1996   2393      1
  2255   1997   1998      1
  2256   1998   2046      1
  2257   2000   2001      1
  2258   2000   2003      1
  2259   2003   2004      1
  2260   2003   2053      1
  2261   2004   2005      1
  2262   2004   2006      1
  2263   2006   2007      1
  2264   2006   2056      1
  2265   2007   2061      1
  2266   2008   2009      1
  2267   2008   2404      1
  2268   2009   2010      1
  2269   2010   2011      1
  2270   2010   2013      1
  2271   2011   2014      1
  2272   2011   2406      1
  2273   2012   2013      1
  2274   2013   2015      1
  2275   2014   2415      1
  2276   2015   2069      1
  2277   2016   2017      1
  2278   2016   2416      1
  2279   2017   2018      1
  2280   2017   2020      1
  2281   2019   2020      1
  2282   2021   2022      1
  2283   2022   2023      1
  2284   2022   2079      1
  2285   2023   2026      1
  2286   2024   2025      1
  2287   2024   2026      1
  2288   2024   2079      1
  2289   2024   2083      1
  2290   2025   2028      1
  2291   2025   2429      1
  2292   2026   2030      1
  2293   2027   2029      1
  2294   2028   2029      1
  2295   2028   2433      1
  2296   2029   2032      1
  2297   2030   2031      1
  2298   2031   2032      1
  2299   2032   2033      1
  2300   2032   2034      1
  2301   2034   2035      1
  2302   2034   2436      1
  2303   2035   2036      1
  2304   2036   2037      1
  2305   2036   2440      1
  2306   2037   2443      1
  2307   2038   2039      1
  2308   2039   2040      1
  2309   2039   2041      1
  2310   2040   2042      1
  2311   2041   2043      1
  2312   2041   2095      1
  2313   2043   2099      1
  2314   2044   2045      1
  2315   2045   2046      1
  2316   2046   2048      1
  2317   2047   2048      1
  2318   2047   2105      1
  2319   2047   2450      1
  2320   2049   2050      1
  2321   2051   2054      1
  2322   2052   2108      1
  2323   2052   2113      1
  2324   2052   2496      1
  2325   2053   2056      1
  2326   2054   2055      1
  2327   2055   2112      1
  2328   2055   2117      1
  2329   2057   2058      1
  2330   2057   2059      1
  2331   2057   2455      1
  2332   2059   2063      1
  2333   2059   2116      1
  2334   2060   2061      1
  2335   2060   2062      1
  2336   2061   2065      1
  2337   2062   2066      1
  2338   2063   2064      1
  2339   2063   2460      1
  2340   2064   2066      1
  2341   2066   2067      1
  2342   2068   2070      1
  2343   2069   2071      1
  2344   2070   2129      1
  2345   2070   2513      1
  2346   2071   2073      1
  2347   2072   2073      1
  2348   2073   2074      1
  2349   2074   2075      1
  2350   2074   2076      1
  2351   2075   2077      1
  2352   2075   2470      1
  2353   2076   2078      1
  2354   2077   2079      1
  2355   2077   2424      1
  2356   2078   2081      1
  2357   2080   2081      1
  2358   2081   2082      1
  2359   2082   2084      1
  2360   2082   2141      1
  2361   2084   2085      1
  2362   2084   2142      1
  2363   2087   2089      1
  2364   2088   2089      1
  2365   2089   2090      1
  2366   2090   2092      1
  2367   2090   2481      1
  2368   2091   2155      1
  2369   2092   2094      1
  2370   2092   2155      1
  2371   2093   2095      1
  2372   2094   2096      1
  2373   2094   2159      1
  2374   2095   2097      1
  2375   2096   2483      1
  2376   2096   2485      1
  2377   2097   2098      1
  2378   2097   2099      1
  2379   2099   2101      1
  2380   2100   2102      1
  2381   2101   2102      1
  2382   2101   2103      1
  2383   2102   2104      1
  2384   2102   2106      1
  2385   2104   2107      1
  2386   2104   2163      1
  2387   2105   2106      1
  2388   2109   2111      1
  2389   2110   2111      1
  2390   2110   2169      1
  2391   2111   2112      1
  2392   2111   2115      1
  2393   2112   2113      1
  2394   2113   2116      1
  2395   2114   2115      1
  2396   2114   2173      1
  2397   2115   2118      1
  2398   2116   2502      1
  2399   2117   2119      1
  2400   2118   2119      1
  2401   2118   2121      1
  2402   2120   2121      1
  2403   2120   2502      1
  2404   2120   2506      1
  2405   2121   2123      1
  2406   2122   2123      1
  2407   2122   2177      1
  2408   2123   2125      1
  2409   2124   2509      1
  2410   2125   2127      1
  2411   2125   2508      1
  2412   2126   2128      1
  2413   2127   2183      1
  2414   2128   2179      1
  2415   2128   2182      1
  2416   2129   2131      1
  2417   2130   2131      1
  2418   2131   2134      1
  2419   2132   2133      1
  2420   2133   2134      1
  2421   2133   2519      1
  2422   2134   2135      1
  2423   2135   2136      1
  2424   2135   2137      1
  2425   2137   2138      1
  2426   2137   2520      1
  2427   2138   2139      1
  2428   2138   2525      1
  2429   2140   2141      1
  2430   2140   2526      1
  2431   2141   2143      1
  2432   2144   2145      1
  2433   2144   2146      1
  2434   2144   2200      1
  2435   2145   2147      1
  2436   2145   2202      1
  2437   2147   2148      1
  2438   2148   2149      1
  2439   2148   2150      1
  2440   2150   2151      1
  2441   2150   2153      1
  2442   2151   2154      1
  2443   2151   2533      1
  2444   2152   2154      1
  2445   2153   2155      1
  2446   2154   2156      1
  2447   2155   2158      1
  2448   2156   2209      1
  2449   2156   2538      1
  2450   2157   2158      1
  2451   2157   2160      1
  2452   2158   2159      1
  2453   2159   2161      1
  2454   2160   2210      1
  2455   2162   2216      1
  2456   2163   2164      1
  2457   2164   2166      1
  2458   2165   2166      1
  2459   2167   2169      1
  2460   2167   2170      1
  2461   2168   2170      1
  2462   2170   2171      1
  2463   2171   2172      1
  2464   2171   2174      1
  2465   2172   2175      1
  2466   2172   2229      1
  2467   2173   2174      1
  2468   2173   2558      1
  2469   2174   2176      1
  2470   2178   2180      1
  2471   2178   2570      1
  2472   2180   2181      1
  2473   2180   2236      1
  2474   2182   2183      1
  2475   2182   2184      1
  2476   2183   2185      1
  2477   2184   2188      1
  2478   2186   2187      1
  2479   2186   2189      1
  2480   2186   2246      1
  2481   2187   2191      1
  2482   2187   2249      1
  2483   2188   2189      1
  2484   2188   2192      1
  2485   2190   2192      1
  2486   2191   2192      1
  2487   2191   2193      1
  2488   2192   2194      1
  2489   2193   2195      1
  2490   2193   2252      1
  2491   2193   2584      1
  2492   2197   2199      1
  2493   2197   2261      1
  2494   2198   2264      1
  2495   2199   2268      1
  2496   2200   2201      1
  2497   2200   2595      1
  2498   2201   2202      1
  2499   2201   2204      1
  2500   2203   2204      1
  2501   2204   2205      1
  2502   2205   2206      1
  2503   2206   2207      1
  2504   2206   2208      1
  2505   2208   2280      1
  2506   2212   2285      1
  2507   2212   2606      1
  2508   2213   2214      1
  2509   2213   2280      1
  2510   2213   2285      1
  2511   2213   2286      1
  2512   2215   2216      1
  2513   2216   2219      1
  2514   2217   2218      1
  2515   2218   2222      1
  2516   2218   2609      1
  2517   2219   2220      1
  2518   2219   2223      1
  2519   2221   2289      1
  2520   2222   2223      1
  2521   2222   2614      1
  2522   2224   2289      1
  2523   2225   2228      1
  2524   2225   2616      1
  2525   2226   2227      1
  2526   2226   2293      1
  2527   2227   2228      1
  2528   2227   2230      1
  2529   2228   2231      1
  2530   2229   2230      1
  2531   2230   2232      1
  2532   2231   2232      1
  2533   2231   2299      1
  2534   2232   2233      1
  2535   2233   2304      1
  2536   2234   2236      1
  2537   2235   2237      1
  2538   2235   2625      1
  2539   2235   2626      1
  2540   2236   2238      1
  2541   2237   2238      1
  2542   2237   2239      1
  2543   2237   2240      1
  2544   2238   2241      1
  2545   2239   2243      1
  2546   2239   2304      1
  2547   2239   2309      1
  2548   2240   2242      1
  2549   2240   2244      1
  2550   2240   2627      1
  2551   2243   2244      1
  2552   2243   2245      1
  2553   2244   2247      1
  2554   2245   2248      1
  2555   2247   2317      1
  2556   2247   2633      1
  2557   2248   2250      1
  2558   2249   2252      1
  2559   2249   2632      1
  2560   2251   2254      1
  2561   2251   2256      1
  2562   2251   2633      1
  2563   2252   2256      1
  2564   2253   2255      1
  2565   2254   2255      1
  2566   2254   2258      1
  2567   2254   2317      1
  2568   2255   2259      1
  2569   2255   2320      1
  2570   2256   2262      1
  2571   2257   2261      1
  2572   2259   2260      1
  2573   2259   2263      1
  2574   2261   2264      1
  2575   2262   2263      1
  2576   2262   2264      1
  2577   2262   2639      1
  2578   2263   2265      1
  2579   2264   2266      1
  2580   2265   2266      1
  2581   2265   2267      1
  2582   2266   2268      1
  2583   2268   2269      1
  2584   2269   2271      1
  2585   2270   2272      1
  2586   2271   2273      1
  2587   2272   2273      1
  2588   2272   2651      1
  2589   2273   2275      1
  2590   2274   2275      1
  2591   2275   2276      1
  2592   2275   2278      1
  2593   2277   2278      1
  2594   2277   2335      1
  2595   2278   2279      1
  2596   2279   2280      1
  2597   2279   2283      1
  2598   2281   2282      1
  2599   2281   2337      1
  2600   2281   2709      1
  2601   2282   2283      1
  2602   2282   2659      1
  2603   2283   2284      1
  2604   2283   2285      1
  2605   2287   2288      1
  2606   2287   2342      1
  2607   2287   2345      1
  2608   2290   2670      1
  2609   2291   2295      1
  2610   2292   2294      1
  2611   2292   2297      1
  2612   2292   2670      1
  2613   2293   2294      1
  2614   2294   2295      1
  2615   2295   2296      1
  2616   2297   2298      1
  2617   2297   2299      1
  2618   2297   2675      1
  2619   2299   2302      1
  2620   2301   2358      1
  2621   2302   2303      1
  2622   2302   2304      1
  2623   2303   2307      1
  2624   2304   2305      1
  2625   2307   2679      1
  2626   2307   2682      1
  2627   2308   2310      1
  2628   2310   2311      1
  2629   2310   2312      1
  2630   2312   2313      1
  2631   2312   2682      1
  2632   2313   2314      1
  2633   2313   2315      1
  2634   2315   2316      1
  2635   2315   2684      1
  2636   2315   2688      1
  2637   2316   2317      1
  2638   2316   2318      1
  2639   2318   2319      1
  2640   2318   2320      1
  2641   2320   2321      1
  2642   2321   2322      1
  2643   2321   2323      1
  2644   2322   2324      1
  2645   2322   2695      1
  2646   2324   2325      1
  2647   2324   2698      1
  2648   2325   2328      1
  2649   2326   2328      1
  2650   2328   2329      1
  2651   2329   2330      1
  2652   2329   2703      1
  2653   2330   2331      1
  2654   2330   2333      1
  2655   2332   2333      1
  2656   2333   2334      1
  2657   2334   2335      1
  2658   2334   2336      1
  2659   2335   2337      1
  2660   2338   2339      1
  2661   2339   2341      1
  2662   2339   2342      1
  2663   2340   2341      1
  2664   2341   2343      1
  2665   2343   2344      1
  2666   2343   2345      1
  2667   2344   2712      1
  2668   2344   2716      1
  2669   2345   2346      1
  2670   2348   2350      1
  2671   2349   2350      1
  2672   2350   2354      1
  2673   2351   2353      1
  2674   2352   2353      1
  2675   2353   2355      1
  2676   2353   2401      1
  2677   2354   2355      1
  2678   2355   2357      1
  2679   2356   2357      1
  2680   2356   2403      1
  2681   2357   2358      1
  2682   2358   2359      1
  2683   2359   2360      1
  2684   2360   2362      1
  2685   2360   2363      1
  2686   2361   2365      1
  2687   2362   2364      1
  2688   2362   2365      1
  2689   2364   2411      1
  2690   2365   2366      1
  2691   2365   2367      1
  2692   2367   2411      1
  2693   2368   2369      1
  2694   2370   2371      1
  2695   2370   2372      1
  2696   2370   2425      1
  2697   2371   2373      1
  2698   2371   2423      1
  2699   2372   2374      1
  2700   2373   2375      1
  2701   2374   2376      1
  2702   2375   2377      1
  2703   2376   2377      1
  2704   2376   2699      1
  2705   2377   2378      1
  2706   2378   2434      1
  2707   2379   2437      1
  2708   2381   2437      1
  2709   2383   2385      1
  2710   2384   2385      1
  2711   2384   2386      1
  2712   2384   2443      1
  2713   2385   2388      1
  2714   2387   2388      1
  2715   2388   2389      1
  2716   2390   2391      1
  2717   2392   2394      1
  2718   2394   2452      1
  2719   2395   2397      1
  2720   2395   2453      1
  2721   2396   2398      1
  2722   2397   2398      1
  2723   2397   2399      1
  2724   2398   2400      1
  2725   2400   2455      1
  2726   2402   2403      1
  2727   2403   2404      1
  2728   2404   2406      1
  2729   2405   2407      1
  2730   2405   2408      1
  2731   2406   2409      1
  2732   2407   2409      1
  2733   2409   2410      1
  2734   2411   2414      1
  2735   2413   2415      1
  2736   2414   2416      1
  2737   2414   2417      1
  2738   2415   2416      1
  2739   2417   2418      1
  2740   2419   2422      1
  2741   2420   2421      1
  2742   2420   2424      1
  2743   2420   2469      1
  2744   2421   2422      1
  2745   2422   2425      1
  2746   2424   2429      1
  2747   2425   2427      1
  2748   2426   2472      1
  2749   2427   2430      1
  2750   2427   2431      1
  2751   2428   2430      1
  2752   2428   2472      1
  2753   2429   2432      1
  2754   2430   2432      1
  2755   2432   2433      1
  2756   2433   2434      1
  2757   2434   2435      1
  2758   2435   2436      1
  2759   2435   2437      1
  2760   2436   2439      1
  2761   2437   2438      1
  2762   2439   2440      1
  2763   2439   2476      1
  2764   2440   2442      1
  2765   2441   2443      1
  2766   2442   2480      1
  2767   2444   2446      1
  2768   2445   2447      1
  2769   2445   2486      1
  2770   2446   2447      1
  2771   2447   2448      1
  2772   2448   2449      1
  2773   2448   2488      1
  2774   2451   2452      1
  2775   2454   2496      1
  2776   2456   2458      1
  2777   2458   2459      1
  2778   2459   2462      1
  2779   2460   2461      1
  2780   2460   2509      1
  2781   2461   2462      1
  2782   2462   2465      1
  2783   2463   2464      1
  2784   2467   2468      1
  2785   2467   2511      1
  2786   2467   2512      1
  2787   2467   2515      1
  2788   2471   2472      1
  2789   2473   2474      1
  2790   2474   2475      1
  2791   2474   2527      1
  2792   2476   2478      1
  2793   2479   2537      1
  2794   2480   2481      1
  2795   2480   2482      1
  2796   2481   2483      1
  2797   2483   2484      1
  2798   2485   2487      1
  2799   2485   2548      1
  2800   2486   2488      1
  2801   2487   2491      1
  2802   2488   2490      1
  2803   2489   2490      1
  2804   2490   2491      1
  2805   2490   2493      1
  2806   2491   2492      1
  2807   2494   2495      1
  2808   2494   2496      1
  2809   2495   2498      1
  2810   2497   2499      1
  2811   2497   2554      1
  2812   2498   2499      1
  2813   2499   2500      1
  2814   2500   2501      1
  2815   2500   2502      1
  2816   2503   2506      1
  2817   2504   2505      1
  2818   2505   2507      1
  2819   2505   2562      1
  2820   2506   2508      1
  2821   2508   2568      1
  2822   2509   2510      1
  2823   2510   2511      1
  2824   2513   2517      1
  2825   2514   2577      1
  2826   2515   2516      1
  2827   2515   2517      1
  2828   2517   2519      1
  2829   2518   2519      1
  2830   2519   2520      1
  2831   2520   2521      1
  2832   2522   2527      1
  2833   2523   2528      1
  2834   2524   2526      1
  2835   2526   2527      1
  2836   2527   2528      1
  2837   2528   2529      1
  2838   2531   2532      1
  2839   2532   2534      1
  2840   2533   2535      1
  2841   2533   2536      1
  2842   2535   2537      1
  2843   2536   2538      1
  2844   2536   2539      1
  2845   2537   2539      1
  2846   2538   2541      1
  2847   2539   2540      1
  2848   2540   2542      1
  2849   2542   2543      1
  2850   2542   2544      1
  2851   2543   2547      1
  2852   2543   2608      1
  2853   2545   2547      1
  2854   2546   2548      1
  2855   2547   2548      1
  2856   2547   2550      1
  2857   2548   2549      1
  2858   2550   2551      1
  2859   2550   2609      1
  2860   2551   2552      1
  2861   2553   2554      1
  2862   2554   2556      1
  2863   2555   2557      1
  2864   2556   2557      1
  2865   2557   2558      1
  2866   2558   2561      1
  2867   2559   2560      1
  2868   2559   2620      1
  2869   2560   2564      1
  2870   2560   2621      1
  2871   2562   2563      1
  2872   2563   2566      1
  2873   2564   2565      1
  2874   2564   2566      1
  2875   2565   2626      1
  2876   2566   2567      1
  2877   2566   2569      1
  2878   2567   2568      1
  2879   2568   2570      1
  2880   2568   2571      1
  2881   2569   2574      1
  2882   2570   2573      1
  2883   2572   2574      1
  2884   2576   2579      1
  2885   2578   2579      1
  2886   2579   2580      1
  2887   2579   2582      1
  2888   2582   2583      1
  2889   2582   2584      1
  2890   2583   2586      1
  2891   2584   2587      1
  2892   2586   2587      1
  2893   2586   2589      1
  2894   2587   2588      1
  2895   2591   2593      1
  2896   2592   2593      1
  2897   2593   2594      1
  2898   2593   2595      1
  2899   2595   2598      1
  2900   2596   2597      1
  2901   2597   2599      1
  2902   2597   2649      1
  2903   2598   2599      1
  2904   2598   2600      1
  2905   2599   2601      1
  2906   2601   2602      1
  2907   2601   2651      1
  2908   2602   2604      1
  2909   2602   2656      1
  2910   2603   2604      1
  2911   2604   2605      1
  2912   2605   2606      1
  2913   2605   2607      1
  2914   2606   2658      1
  2915   2607   2608      1
  2916   2608   2609      1
  2917   2609   2610      1
  2918   2611   2612      1
  2919   2612   2664      1
  2920   2613   2666      1
  2921   2615   2619      1
  2922   2616   2668      1
  2923   2617   2619      1
  2924   2619   2621      1
  2925   2622   2623      1
  2926   2623   2625      1
  2927   2623   2680      1
  2928   2628   2629      1
  2929   2629   2631      1
  2930   2629   2632      1
  2931   2630   2631      1
  2932   2631   2634      1
  2933   2632   2633      1
  2934   2634   2635      1
  2935   2634   2636      1
  2936   2637   2638      1
  2937   2640   2641      1
  2938   2641   2642      1
  2939   2641   2644      1
  2940   2642   2643      1
  2941   2642   2644      1
  2942   2643   2645      1
  2943   2643   2697      1
  2944   2646   2698      1
  2945   2648   2650      1
  2946   2649   2650      1
  2947   2650   2652      1
  2948   2652   2655      1
  2949   2653   2655      1
  2950   2653   2706      1
  2951   2654   2656      1
  2952   2655   2657      1
  2953   2656   2658      1
  2954   2658   2659      1
  2955   2659   2660      1
  2956   2660   2661      1
  2957   2660   2662      1
  2958   2661   2662      1
  2959   2662   2663      1
  2960   2663   2667      1
  2961   2663   2718      1
  2962   2664   2665      1
  2963   2664   2666      1
  2964   2669   2671      1
  2965   2670   2672      1
  2966   2671   2674      1
  2967   2673   2674      1
  2968   2674   2676      1
  2969   2676   2678      1
  2970   2678   2679      1
  2971   2678   2680      1
  2972   2680   2681      1
  2973   2685   2686      1
  2974   2686   2689      1
  2975   2687   2688      1
  2976   2688   2691      1
  2977   2689   2690      1
  2978   2689   2692      1
  2979   2691   2693      1
  2980   2692   2693      1
  2981   2692   2694      1
  2982   2693   2695      1
  2983   2694   2696      1
  2984   2695   2696      1
  2985   2696   2697      1
  2986   2697   2698      1
  2987   2700   2701      1
  2988   2700   2702      1
  2989   2702   2703      1
  2990   2705   2706      1
  2991   2706   2707      1
  2992   2710   2711      1
  2993   2711   2712      1
  2994   2711   2714      1
  2995   2713   2715      1
  2996   2714   2715      1
  2997   2714   2716      1
  2998   2715   2717      1
  2999   2716   2719      1
  3000   2717   2718      1
  3001   2719   2720      1
  3002   2721   2722     du
  3003   2722   2723     du
  3004   2723   2724     du
  3005   2724   2721     du
  3006   2725   2726     du
  3007   2726   2727     du
  3008   2727   2728     du
  3009   2728   2725     du
  3010   2724   2728     du
  3011   2725   2721     du
  3012   2723   2727     du
  3013   2726   2722     du
