@<TRIPOS>MOLECULE
LAMMPS data file via write_data, version 29 Oct 2020, timestep = 100 > lmp2SYBYLmol2 v3.0 / 24 May 2023 w/remove_PBC_bonds=True
  2548 2904    0    0    0
SMALL
NO_CHARGES
****
Energy = 0

@<TRIPOS>ATOM
      1 C          -14.9807   -12.0416   -13.2761 C       1      m1     0.0040
      2 H           15.0828   -10.1814   -11.5736 H       1      m1     0.0248
      3 C          -14.6333   -13.2157   -12.5786 C       1      m1     0.0010
      4 C          -14.1029   -10.1369   -14.2163 C       1      m1     0.0020
      5 C          -13.8919   -10.9991   -13.3467 C       1      m1    -0.0208
      6 H          -13.1396   -10.7176   -12.5359 H       1      m1     0.0175
      7 C          -12.1200   -13.3024   -14.2304 C       1      m1     0.0042
      8 H          -11.2190   -11.9855   -11.6239 H       1      m1     0.0213
      9 C          -10.6999   -11.2995   -10.8652 C       1      m1    -0.0140
     10 C          -10.7017   -12.9067   -14.0688 C       1      m1    -0.0071
     11 C          -10.0315   -13.3559   -12.7838 C       1      m1    -0.0055
     12 H           -9.1427   -11.4625   -13.1685 H       1      m1     0.0224
     13 C           -8.7433   -13.6759   -12.3230 C       1      m1    -0.0066
     14 C           -8.6439   -12.7730   -11.0618 C       1      m1    -0.0020
     15 C           -8.5430   -10.7066   -12.6753 C       1      m1    -0.0175
     16 C           -6.9986   -11.0429   -13.0513 C       1      m1     0.0039
     17 C           -6.6460   -12.2551   -12.9670 C       1      m1     0.0075
     18 C           -6.6196   -13.5924   -12.3229 C       1      m1    -0.0050
     19 C           -6.2571   -10.6527   -14.2681 C       1      m1    -0.0107
     20 H           -4.4119   -12.9275   -13.6527 H       1      m1     0.0611
     21 C           -4.1577   -13.6668   -12.7601 C       1      m1    -0.0090
     22 O           -3.3157   -10.9035   -13.3995 O       1      m1    -0.5188
     23 C           -3.1136   -13.8471   -11.8520 C       1      m1    -0.0011
     24 C           -1.9611   -13.1058   -12.1287 C       1      m1    -0.0546
     25 C           -2.0768   -11.6463   -12.7631 C       1      m1     0.2259
     26 H           -1.1218   -13.4898   -11.4475 H       1      m1     0.0220
     27 C           -0.9998   -10.9948   -12.4560 C       1      m1    -0.0789
     28 H            1.0549   -11.8178   -12.4201 H       1      m1     0.0188
     29 C            1.8634   -12.0181   -11.4858 C       1      m1    -0.0097
     30 C            3.3010   -12.0711   -12.0262 C       1      m1     0.0226
     31 C            3.5595   -12.1683   -13.5902 C       1      m1     0.0014
     32 C            3.6741   -13.5642   -13.5365 C       1      m1    -0.0351
     33 C            4.4221   -11.9990   -11.2670 C       1      m1     0.0449
     34 C            6.9774   -12.8692   -14.5978 C       1      m1     0.0030
     35 C            7.3171   -13.7678   -13.4860 C       1      m1     0.0062
     36 C            7.5179   -10.4277   -14.5003 C       1      m1    -0.0066
     37 C            8.5450   -13.6492   -12.7799 C       1      m1    -0.0023
     38 H            8.4747   -11.7669   -11.8182 H       1      m1     0.0196
     39 C            9.6420   -11.5288   -11.9534 C       1      m1    -0.0175
     40 C            9.8287   -13.4378   -13.2470 C       1      m1     0.0014
     41 C           10.4613   -10.2645   -11.5726 C       1      m1    -0.0217
     42 C           10.4777   -12.5011   -12.3770 C       1      m1     0.0030
     43 C           11.5094   -10.2672   -10.4517 C       1      m1     0.0010
     44 C           12.0231   -12.0325   -12.3678 C       1      m1     0.0001
     45 C           12.4362   -12.4778   -11.0362 C       1      m1    -0.0025
     46 C           13.0256   -12.0912   -13.2402 C       1      m1     0.0003
     47 C           14.0100   -12.0836   -14.1059 C       1      m1     0.0016
     48 C          -14.9004    -6.6147   -12.6410 C       1      m1     0.0008
     49 C          -14.5495    -7.6264   -10.4069 C       1      m1    -0.0052
     50 C          -13.1921    -7.3298   -10.7587 C       1      m1     0.0004
     51 H          -13.3003    -9.0990   -11.8784 H       1      m1     0.0162
     52 C          -12.8597    -7.9660   -12.0129 C       1      m1    -0.0168
     53 C          -11.9078    -7.6403   -12.9677 C       1      m1    -0.0057
     54 C          -11.1708    -6.8579   -14.0645 C       1      m1    -0.0070
     55 H          -10.8067    -9.1409   -14.5148 H       1      m1     0.0144
     56 C          -10.1052    -8.1767   -14.4348 C       1      m1    -0.0218
     57 C          -10.1208    -5.7702   -11.4514 C       1      m1    -0.0021
     58 C           -9.5480    -8.0989   -12.9803 C       1      m1    -0.0010
     59 C           -9.3790    -6.7326   -12.3485 C       1      m1    -0.0032
     60 C           -8.9805    -9.5465   -12.8557 C       1      m1    -0.0079
     61 C           -8.1130    -6.1530   -12.7158 C       1      m1    -0.0032
     62 C           -7.0632    -6.4090   -13.6394 C       1      m1    -0.0049
     63 C           -5.7844    -6.5093   -12.6529 C       1      m1    -0.0024
     64 H           -5.9275    -9.6157   -11.9212 H       1      m1     0.0286
     65 C           -5.3383    -9.1903   -11.1150 C       1      m1    -0.0104
     66 H           -5.1021    -8.6257   -13.0742 H       1      m1     0.0341
     67 C           -4.2589    -6.3233   -12.7492 C       1      m1    -0.0591
     68 C           -4.0834    -8.5852   -13.2858 C       1      m1    -0.0892
     69 C           -3.5483    -7.4679   -12.4938 C       1      m1     0.2131
     70 C           -3.0192    -9.4973   -13.0226 C       1      m1     0.2138
     71 O           -2.1697    -7.6998   -11.7750 O       1      m1    -0.4878
     72 C           -2.1324    -9.1546   -12.2674 C       1      m1     0.1316
     73 H           -1.1109    -8.0089   -13.6484 H       1      m1     0.0595
     74 C           -0.8519    -9.7463   -12.1583 C       1      m1     0.0168
     75 C            0.4950    -8.9508   -11.4615 C       1      m1     0.0037
     76 H            1.6322    -8.8089   -11.6030 H       1      m1     0.0128
     77 H            2.1605    -7.5565   -14.3596 H       1      m1     0.0273
     78 H            2.5155    -9.3827   -14.3018 H       1      m1     0.0189
     79 C            3.4740    -9.8590   -14.6179 C       1      m1    -0.0394
     80 C            5.5095    -6.0484   -11.1571 C       1      m1     0.2075
     81 C            6.2476    -6.5825   -13.0761 C       1      m1     0.2325
     82 C            6.3135    -7.2541   -10.9621 C       1      m1    -0.0424
     83 C            6.6754    -7.6301   -12.1690 C       1      m1    -0.0448
     84 C            7.1785    -6.5928   -14.1532 C       1      m1    -0.0205
     85 C            7.4517    -9.5049   -13.6698 C       1      m1    -0.0013
     86 C            7.7286    -8.7565   -12.6211 C       1      m1    -0.0144
     87 H            8.7867    -8.3422   -12.4712 H       1      m1     0.0138
     88 H           10.3248    -9.2123   -11.4106 H       1      m1     0.0155
     89 C           13.4729    -6.4456   -10.8876 C       1      m1    -0.0018
     90 C           14.7862    -7.1169   -11.3987 C       1      m1    -0.0020
     91 C          -14.4517    -5.5566   -13.2616 C       1      m1    -0.0034
     92 C          -14.3056    -4.0927   -12.8610 C       1      m1     0.0008
     93 C          -13.7590    -3.1460   -13.7979 C       1      m1     0.0025
     94 C          -13.8002    -5.5180   -14.6864 C       1      m1     0.0124
     95 H          -13.0263    -4.3625   -10.5185 H       1      m1     0.0309
     96 C          -13.1390    -4.0138   -11.6290 C       1      m1    -0.0088
     97 C          -12.4943    -2.6355   -13.3256 C       1      m1     0.0041
     98 C          -12.1016    -3.4043   -12.1287 C       1      m1     0.0073
     99 C          -10.7557    -2.7831   -11.5290 C       1      m1     0.0054
    100 C          -10.7735    -5.5792   -14.4445 C       1      m1     0.0062
    101 C           -9.7986    -3.4009   -10.8254 C       1      m1     0.0019
    102 C           -9.3244    -4.5864   -11.3126 C       1      m1    -0.0044
    103 C           -8.1261    -4.7099   -12.1470 C       1      m1     0.0000
    104 C           -7.3530    -3.8305   -12.9913 C       1      m1    -0.0150
    105 H           -7.6548    -3.7210   -14.0783 H       1      m1     0.0251
    106 C           -6.0041    -3.5372   -12.5153 C       1      m1    -0.0057
    107 C           -5.8771    -5.6750   -11.2594 C       1      m1     0.0006
    108 C           -5.2814    -4.2121   -11.3782 C       1      m1     0.0033
    109 C           -5.0394    -3.0488   -13.4915 C       1      m1    -0.0006
    110 H           -4.4505    -5.3270   -13.2526 H       1      m1     0.0311
    111 C           -4.1588    -3.6080   -14.5179 C       1      m1    -0.0227
    112 H           -3.5260    -4.3376   -13.9741 H       1      m1     0.0152
    113 H           -1.9115    -5.0931   -13.1901 H       1      m1     0.0391
    114 C           -1.0412    -5.1084   -13.6738 C       1      m1    -0.0236
    115 C            0.0927    -5.2340   -12.9185 C       1      m1     0.0171
    116 H            0.5984    -1.5650   -12.3499 H       1      m1     0.0198
    117 H            1.3829    -3.8850   -14.4210 H       1      m1     0.0321
    118 C            1.1368    -5.3064   -12.2617 C       1      m1     0.0031
    119 C            2.1101    -4.7626   -11.3043 C       1      m1     0.0215
    120 C            2.7028    -3.7434   -10.6903 C       1      m1     0.0041
    121 C            3.1768    -2.5803   -13.7391 C       1      m1     0.0143
    122 C            3.0003    -2.2584   -12.2803 C       1      m1     0.0016
    123 C            3.4373    -2.5478   -11.1866 C       1      m1     0.0165
    124 C            4.1299    -2.8947   -14.6089 C       1      m1     0.0250
    125 O            5.2119    -5.5826   -12.6283 O       1      m1    -0.4636
    126 H            7.9313    -3.7654   -11.9159 H       1      m1     0.0347
    127 H            8.1323    -5.7245   -11.1951 H       1      m1     0.0267
    128 C            8.5667    -4.7455   -11.4923 C       1      m1    -0.0295
    129 C            9.4859    -5.8532   -14.5626 C       1      m1    -0.0095
    130 C           10.0467    -5.1226   -12.0657 C       1      m1    -0.0046
    131 C           10.2172    -5.4681   -13.5333 C       1      m1    -0.0215
    132 C           11.1764    -5.6710   -11.3749 C       1      m1    -0.0134
    133 H           11.3153    -5.1305   -13.3960 H       1      m1     0.0163
    134 C           12.6679    -5.7384   -11.8763 C       1      m1    -0.0074
    135 C           13.3949    -4.9206   -12.9019 C       1      m1    -0.0128
    136 C           13.6630    -2.4625   -10.6192 C       1      m1    -0.0477
    137 C           14.6218    -4.1724   -12.2418 C       1      m1    -0.0071
    138 C           14.3521    -2.9057   -11.6212 C       1      m1     0.0231
    139 H           14.6450    -2.8003   -14.2651 H       1      m1     0.0223
    140 C          -12.9190    -0.5284   -14.4075 C       1      m1    -0.0054
    141 H          -12.5385     0.4819   -14.1547 H       1      m1     0.0282
    142 C          -12.1136    -1.3598   -13.5621 C       1      m1     0.0728
    143 C          -11.1642    -0.6305   -12.9283 C       1      m1     0.0322
    144 C          -10.9892    -1.4155   -11.6726 C       1      m1     0.0297
    145 O          -10.7902     1.4908   -10.8709 O       1      m1    -0.6249
    146 C           -9.9189    -0.0821   -13.2479 C       1      m1     0.0480
    147 C          -10.0326    -0.7598   -10.8529 C       1      m1    -0.0401
    148 C           -9.9038     0.4987   -10.3200 C       1      m1     0.2886
    149 C           -9.7246     1.2135   -13.9474 C       1      m1     0.0161
    150 C           -9.0064    -1.1204   -13.4862 C       1      m1    -0.0498
    151 C           -7.6339    -0.6527   -13.4806 C       1      m1     0.0020
    152 H           -7.2264    -0.2850   -11.4438 H       1      m1     0.0213
    153 C           -6.7528    -0.5679   -12.3598 C       1      m1    -0.0142
    154 C           -5.3646    -0.5764   -12.8090 C       1      m1    -0.0137
    155 C           -5.0581    -1.5912   -13.8480 C       1      m1     0.0035
    156 H           -4.6251    -0.2637   -12.1180 H       1      m1     0.0213
    157 H           -2.8183     1.1445   -11.3733 H       1      m1     0.0297
    158 C           -2.3127     1.4260   -10.4373 C       1      m1    -0.0329
    159 C           -1.8914     1.1075   -14.0744 C       1      m1    -0.0035
    160 C           -1.7131    -0.1016   -13.5532 C       1      m1    -0.0042
    161 C           -1.2543    -1.0384   -12.9564 C       1      m1    -0.0044
    162 C           -0.6547    -0.8864   -10.6686 C       1      m1    -0.0002
    163 C           -0.3795    -1.4618   -11.9280 C       1      m1    -0.0228
    164 C            0.8191     1.6020   -14.4904 C       1      m1    -0.0195
    165 C            1.8275     1.0492   -13.6729 C       1      m1    -0.0025
    166 C            2.0666    -0.3870   -13.6530 C       1      m1    -0.0108
    167 C            2.4851     0.0172   -11.3542 C       1      m1    -0.0034
    168 C            2.5789    -0.9800   -12.3895 C       1      m1    -0.0079
    169 C            2.5445    -1.4668   -14.5073 C       1      m1    -0.0071
    170 C            2.8549     1.4037   -11.7155 C       1      m1    -0.0021
    171 C            2.7545     1.8918   -12.9860 C       1      m1    -0.0026
    172 C            3.9552     1.7351   -13.6385 C       1      m1    -0.0086
    173 C            4.7904     0.9734   -14.2919 C       1      m1    -0.0035
    174 C            6.4154    -1.5835   -11.3609 C       1      m1     0.0058
    175 C            7.0136    -1.3601   -12.5081 C       1      m1     0.0013
    176 C            6.9851     0.0442   -14.6177 C       1      m1    -0.0024
    177 C            7.1733    -0.9700   -13.6214 C       1      m1    -0.0026
    178 C            8.8930     1.3486   -13.9699 C       1      m1    -0.0006
    179 C           10.1263     1.1571   -13.2755 C       1      m1    -0.0005
    180 C           11.2468     1.8123   -12.5133 C       1      m1     0.0014
    181 C           12.1175     0.7706   -11.7880 C       1      m1     0.0008
    182 C           12.8483    -0.0942   -11.2045 C       1      m1    -0.0014
    183 C          -14.6571     2.8291   -10.9635 C       1      m1    -0.0007
    184 C          -14.3638     3.8149   -12.1548 C       1      m1    -0.0035
    185 C          -13.6344     1.9331   -11.0484 C       1      m1    -0.0099
    186 C          -13.3734     4.2051   -13.0988 C       1      m1    -0.0053
    187 C          -13.0448     3.5378   -14.3452 C       1      m1    -0.0065
    188 H          -12.7463     1.9827   -11.6876 H       1      m1     0.0785
    189 C          -12.1132     4.5611   -12.3529 C       1      m1     0.0067
    190 C          -11.6730     5.6877   -11.5102 C       1      m1    -0.0181
    191 C          -11.6456     3.3453   -14.1715 C       1      m1     0.0032
    192 C          -11.0015     4.2833   -13.2499 C       1      m1     0.0090
    193 C          -10.5412     5.3962   -14.0510 C       1      m1     0.0073
    194 C          -10.5341     5.7970   -10.6509 C       1      m1     0.0066
    195 C           -9.1001     5.6697   -14.1419 C       1      m1    -0.0437
    196 C           -8.5828     4.4647   -13.5949 C       1      m1    -0.0048
    197 C           -8.5225     1.9514   -13.6732 C       1      m1    -0.0013
    198 C           -8.1760     3.2559   -12.9420 C       1      m1     0.0165
    199 C           -7.6643     2.4324   -10.9564 C       1      m1     0.0130
    200 C           -7.1201     3.4031   -11.8617 C       1      m1    -0.0239
    201 H           -6.1658     3.8271   -11.8015 H       1      m1     0.0328
    202 C           -4.4379     5.4137   -13.7780 C       1      m1     0.2354
    203 O           -4.0886     4.0343   -14.2475 O       1      m1    -0.5061
    204 H           -1.6262     2.2493   -13.5073 H       1      m1     0.0434
    205 C           -1.2498     5.4177   -13.3227 C       1      m1     0.0137
    206 C           -1.2280     4.4424   -12.5100 C       1      m1     0.0145
    207 C           -1.1299     2.2539   -10.9171 C       1      m1     0.0078
    208 C           -1.0121     3.3183   -11.9828 C       1      m1    -0.0060
    209 H            0.8327     1.2401   -10.9705 H       1      m1     0.0244
    210 H            1.4975     3.4320   -14.3161 H       1      m1     0.0211
    211 H            1.6659     4.8485   -13.6095 H       1      m1     0.0184
    212 C            2.7178     5.2612   -13.4437 C       1      m1    -0.0207
    213 C            3.3080     5.5718   -12.3141 C       1      m1    -0.0034
    214 C            3.4250     2.2751   -10.7092 C       1      m1     0.0011
    215 H            5.3934     4.9447   -12.0362 H       1      m1     0.0280
    216 H            5.6621     3.1782   -12.6439 H       1      m1     0.0257
    217 C            5.9595     4.2458   -12.5558 C       1      m1    -0.0314
    218 C            6.6093     3.9315   -11.2235 C       1      m1     0.0003
    219 C            6.8830     5.1953   -13.1692 C       1      m1    -0.0142
    220 C            7.5133     2.8469   -10.9428 C       1      m1    -0.0004
    221 C            7.7983     4.9193   -14.0526 C       1      m1     0.0065
    222 C            8.7799     2.8630   -13.8705 C       1      m1     0.0017
    223 C            9.5297     5.6989   -10.6523 C       1      m1    -0.0003
    224 C            9.7218     4.2464   -10.6375 C       1      m1    -0.0010
    225 C            9.9877     3.3789   -14.0864 C       1      m1     0.0038
    226 C           11.2549     3.8380   -13.9868 C       1      m1     0.0012
    227 C           11.6498     3.3569   -12.5433 C       1      m1    -0.0012
    228 C           12.3655     4.4251   -11.8031 C       1      m1    -0.0018
    229 C           12.2275     5.6562   -12.5672 C       1      m1    -0.0020
    230 C           13.0371     3.0447   -14.2647 C       1      m1    -0.0049
    231 C          -14.9164     9.1237   -14.3510 C       1      m1     0.0005
    232 C          -14.3707     8.5567   -10.9829 C       1      m1    -0.0485
    233 C          -13.6582     8.8379   -13.7500 C       1      m1    -0.0019
    234 C          -13.5666     8.5810   -12.2671 C       1      m1     0.0010
    235 H          -12.5442     6.3029   -11.3299 H       1      m1     0.0265
    236 C          -12.0465     8.3172   -10.6349 C       1      m1    -0.0340
    237 C          -12.3067     8.2192   -12.0444 C       1      m1    -0.0238
    238 H          -11.5872     8.1586   -12.9049 H       1      m1     0.0272
    239 C          -10.4520     8.1952   -14.4888 C       1      m1    -0.0438
    240 C           -9.5484     7.9547   -10.7419 C       1      m1     0.0017
    241 C           -9.5965     8.7678   -11.8483 C       1      m1    -0.0060
    242 C           -9.2602     6.4628   -11.0504 C       1      m1    -0.0006
    243 C           -9.0673     8.3965   -14.4228 C       1      m1     0.1891
    244 C           -8.7633     8.0619   -12.9855 C       1      m1    -0.0195
    245 C           -6.3489     8.8406   -11.7721 C       1      m1    -0.0040
    246 C           -5.5700     7.1882   -13.3884 C       1      m1     0.0053
    247 C           -5.8548     5.9614   -13.8821 C       1      m1    -0.0275
    248 C           -5.5274     9.9303   -13.8861 C       1      m1     0.0051
    249 C           -5.6275     8.4460   -13.0830 C       1      m1     0.0115
    250 H           -3.6333     7.0326   -11.6411 H       1      m1     0.0197
    251 C           -3.4913     7.2924   -10.5927 C       1      m1    -0.0183
    252 C           -3.3270     6.2726   -13.5930 C       1      m1    -0.0250
    253 C           -3.1066     9.6716   -14.2102 C       1      m1    -0.0258
    254 H           -2.2729     9.1272   -13.9196 H       1      m1     0.0233
    255 C           -2.2795     9.4158   -11.2054 C       1      m1    -0.0055
    256 C           -1.7963     6.5723   -13.7229 C       1      m1    -0.0027
    257 H           -1.0323     7.0964   -14.4063 H       1      m1     0.0188
    258 H           -0.3259     6.9038   -11.0054 H       1      m1     0.0178
    259 C           -0.7622     9.0926   -11.3467 C       1      m1    -0.0033
    260 C            0.0208     7.8107   -11.3115 C       1      m1    -0.0190
    261 C            1.8029     9.1138   -13.9745 C       1      m1    -0.0218
    262 C            2.0540     9.3877   -12.7666 C       1      m1     0.0064
    263 H            2.3020     8.2826   -14.6297 H       1      m1     0.0170
    264 H            2.9337     7.2495   -11.1765 H       1      m1     0.0236
    265 C            3.2458     8.2302   -10.8008 C       1      m1    -0.0231
    266 C            3.2332     8.4798   -12.4275 C       1      m1    -0.0029
    267 C            3.8866     5.7132   -11.1259 C       1      m1    -0.0067
    268 C            4.4197     8.4738   -13.1722 C       1      m1    -0.0169
    269 C            4.4725     8.2546   -10.6693 C       1      m1     0.0082
    270 C            4.7070     7.8939   -14.5882 C       1      m1    -0.0011
    271 C            4.8805     6.9484   -10.8613 C       1      m1    -0.0081
    272 H            5.2819     9.2758   -13.1930 H       1      m1     0.0264
    273 H            6.7113     6.1436   -12.7793 H       1      m1     0.0210
    274 C            7.4352     9.0817   -10.4493 C       1      m1    -0.0023
    275 C            8.1530     8.1382   -11.3386 C       1      m1     0.0138
    276 H            8.4392     7.5056   -13.2346 H       1      m1     0.0687
    277 C            8.6800     7.4133   -12.1967 C       1      m1    -0.0140
    278 O            9.3530     9.2245   -14.5448 O       1      m1    -0.4970
    279 C            9.8763     6.6043   -11.6465 C       1      m1     0.0064
    280 C           10.9486     6.3628   -12.7633 C       1      m1     0.0004
    281 C           11.2587     9.7118   -11.0800 C       1      m1    -0.0066
    282 C           11.1919     7.2589   -13.9299 C       1      m1     0.0287
    283 C           11.5810     9.0039   -12.1036 C       1      m1     0.0153
    284 C           12.0190     8.2753   -13.2404 C       1      m1    -0.0024
    285 C           13.3494     7.5974   -13.3188 C       1      m1    -0.0034
    286 C           13.4050     6.4565   -12.2528 C       1      m1    -0.0023
    287 C           14.0235     6.8470   -10.8407 C       1      m1    -0.0005
    288 C           14.3849     7.9440   -14.4201 C       1      m1    -0.0033
    289 C          -14.5527    12.0989   -12.5980 C       1      m1    -0.0034
    290 C          -13.9763    11.0105   -13.2508 C       1      m1     0.0031
    291 C          -13.8851    13.4434   -12.5797 C       1      m1     0.0007
    292 C          -12.8273    11.1524   -14.2628 C       1      m1    -0.0027
    293 C          -12.4343    13.8656   -13.0946 C       1      m1    -0.0006
    294 C          -11.5870    10.9481   -13.7947 C       1      m1     0.0015
    295 C          -11.3202    12.5642   -11.4580 C       1      m1    -0.0045
    296 C          -11.1961    13.4564   -12.5470 C       1      m1    -0.0031
    297 C          -10.2295    10.5240   -13.6091 C       1      m1    -0.0271
    298 C          -10.3687    11.2216   -11.3769 C       1      m1    -0.0051
    299 C           -9.9061    10.1576   -12.2890 C       1      m1     0.0025
    300 H           -9.5660    10.4646   -14.5440 H       1      m1     0.0133
    301 H           -8.6515    11.6023   -14.0671 H       1      m1     0.0173
    302 H           -8.4787    11.4876   -11.0989 H       1      m1     0.0177
    303 C           -7.8317    11.0835   -11.9169 C       1      m1    -0.0181
    304 C           -7.7404    11.7150   -13.3004 C       1      m1    -0.0137
    305 C           -7.7836    13.1158   -12.7822 C       1      m1    -0.0051
    306 C           -7.0850     9.8604   -11.8625 C       1      m1     0.0008
    307 C           -6.4641    10.9768   -14.1045 C       1      m1     0.0044
    308 H           -5.2193    13.1898   -10.8963 H       1      m1     0.0159
    309 C           -5.3251    13.6452   -11.9324 C       1      m1    -0.0205
    310 H           -4.8724    11.4039   -11.1779 H       1      m1     0.0152
    311 C           -4.3344    10.0576   -14.5547 C       1      m1     0.0083
    312 H           -2.6905    13.1652   -11.1361 H       1      m1     0.0124
    313 H           -3.0620    11.4139   -12.1144 H       1      m1     0.0124
    314 H           -2.5891    12.3341    14.6795 H       1      m1     0.0222
    315 C           -2.2255    10.8006   -11.6467 C       1      m1    -0.0230
    316 C           -1.7382    11.7141   -14.4285 C       1      m1    -0.0374
    317 H           -1.8467    11.4909   -13.4320 H       1      m1     0.0229
    318 C           -0.8387    11.2253   -11.3520 C       1      m1    -0.0195
    319 H           -0.6961    12.1598   -11.7306 H       1      m1     0.0214
    320 C            0.0872    10.0987   -11.4766 C       1      m1     0.0033
    321 C            0.7762    11.5243   -14.3301 C       1      m1     0.0045
    322 C            0.7647    10.1413   -14.3492 C       1      m1     0.0032
    323 H            1.2733    13.2957   -14.0653 H       1      m1     0.0259
    324 C            1.7390    10.1329   -11.6359 C       1      m1     0.0095
    325 C            1.8296    12.4512   -14.2043 C       1      m1    -0.0337
    326 C            2.3078    11.3375   -11.6205 C       1      m1    -0.0437
    327 C            2.4120    12.2807   -12.7574 C       1      m1    -0.0451
    328 H            2.4962    12.4518    14.3155 H       1      m1     0.0207
    329 C            2.9869    11.9848   -10.6111 C       1      m1     0.2270
    330 C            3.2953    13.1073   -12.4864 C       1      m1     0.2122
    331 O            3.6526    13.3308   -10.9835 O       1      m1    -0.4898
    332 C            4.7565    13.7751   -14.3664 C       1      m1     0.0091
    333 C            5.4580    12.3812   -14.1414 C       1      m1    -0.0034
    334 H            6.0251    11.5937   -11.4663 H       1      m1     0.0247
    335 C            6.3439    12.5494   -11.7555 C       1      m1     0.0168
    336 C            6.5103    12.8210   -13.1704 C       1      m1     0.0009
    337 C            7.3516    13.2634   -10.9680 C       1      m1     0.0079
    338 H            7.9977    11.1224   -12.9659 H       1      m1     0.0389
    339 C            8.5681    13.5629   -11.5799 C       1      m1    -0.0053
    340 C            9.0936    10.6892   -10.9443 C       1      m1    -0.0018
    341 C            8.9430    10.9340   -12.4377 C       1      m1     0.0270
    342 C            9.8780    13.2381   -10.8785 C       1      m1     0.0026
    343 C            9.9372    13.6172   -14.4677 C       1      m1    -0.0022
    344 C           10.1138    12.1917   -14.3326 C       1      m1     0.0123
    345 C           10.1924    11.5359   -12.9240 C       1      m1     0.0220
    346 C           10.6213    12.2072   -11.7197 C       1      m1    -0.0100
    347 C           12.0942    11.9042   -11.2022 C       1      m1     0.0045
    348 C           13.1139    13.8332   -10.5038 C       1      m1    -0.0033
    349 C           13.2816    11.2132   -11.5744 C       1      m1    -0.0223
    350 H           13.0523    10.2891   -11.8608 H       1      m1     0.0236
    351 H           13.9490    10.2692   -13.9833 H       1      m1     0.0235
    352 C           14.4483    13.0791   -10.7076 C       1      m1    -0.0020
    353 C           14.6839    11.8898   -11.6381 C       1      m1     0.0030
    354 C           14.9840    10.4127   -14.0284 C       1      m1    -0.0197
    355 C          -14.9420   -13.8098    -9.8474 C       1      m1     0.0002
    356 C          -14.4431   -11.4425    -9.9580 C       1      m1     0.0026
    357 H          -14.2784   -10.2859    -6.5289 H       1      m1     0.0199
    358 C          -13.0470   -11.7461    -9.8507 C       1      m1    -0.0039
    359 C          -12.6823   -13.1166    -9.3994 C       1      m1     0.0045
    360 C          -12.0378   -10.7630   -10.3630 C       1      m1    -0.0040
    361 C          -11.3058   -13.6765    -9.3215 C       1      m1    -0.0228
    362 H          -10.3796   -13.8029    -8.7106 H       1      m1     0.0197
    363 C          -10.1273   -11.9596    -6.1283 C       1      m1    -0.0006
    364 C          -10.0401   -10.6684    -6.5139 C       1      m1    -0.0040
    365 C           -9.5206   -11.8308   -10.3169 C       1      m1    -0.0005
    366 C           -8.7075    -9.9564    -8.6147 C       1      m1    -0.0079
    367 C           -8.4642   -11.2303    -9.3735 C       1      m1     0.0019
    368 H           -8.0131   -13.0116    -6.3354 H       1      m1     0.0224
    369 C           -7.4818   -13.0374   -10.2526 C       1      m1    -0.0261
    370 C           -7.1878   -11.9051    -9.3774 C       1      m1     0.0111
    371 C           -5.7157   -12.3000    -8.9591 C       1      m1    -0.0028
    372 C           -5.4668   -10.1238    -6.4623 C       1      m1     0.3453
    373 C           -5.4334   -12.5492    -7.6005 C       1      m1     0.0158
    374 C           -4.8062   -11.4903    -6.6960 C       1      m1    -0.0795
    375 C           -5.0293   -10.3234   -10.2650 C       1      m1     0.0274
    376 C           -4.5831   -11.3465    -9.5052 C       1      m1    -0.0089
    377 H           -3.5400   -11.6697    -9.5763 H       1      m1     0.0257
    378 C           -0.3906   -10.4870    -8.0731 C       1      m1    -0.0068
    379 C            0.3651   -11.7233    -8.0828 C       1      m1    -0.0028
    380 C            0.9874   -12.1712    -9.1699 C       1      m1    -0.0069
    381 C            0.9409   -11.9442    -6.5878 C       1      m1    -0.0054
    382 C            1.4937   -12.2194   -10.2103 C       1      m1     0.0280
    383 C            3.5280   -11.5469    -6.7362 C       1      m1    -0.0222
    384 H            3.9218   -11.6180    -7.6778 H       1      m1     0.0236
    385 H            4.3880   -13.1103    -8.3088 H       1      m1     0.0409
    386 C            5.1933   -12.5091    -8.7475 C       1      m1    -0.0009
    387 C            5.2362   -11.8213   -10.1105 C       1      m1     0.0109
    388 C            5.9575   -10.4713    -9.9633 C       1      m1    -0.0063
    389 C            6.2775   -12.0789    -8.0569 C       1      m1    -0.0015
    390 C            6.4773   -11.7694    -6.6099 C       1      m1     0.0016
    391 C            7.4515   -10.2117    -9.3801 C       1      m1     0.0047
    392 C            7.5910   -11.5040    -8.8324 C       1      m1     0.0014
    393 C            8.7833   -12.4116    -8.7579 C       1      m1     0.0035
    394 C            8.7596    13.8091    -8.9590 C       1      m1    -0.0100
    395 C            8.9716   -11.8678    -6.1731 C       1      m1    -0.0004
    396 C            9.6624   -11.8740    -7.7257 C       1      m1    -0.0213
    397 C           10.1014   -10.3910    -8.0684 C       1      m1     0.0216
    398 H           10.4672   -12.3302    -7.4763 H       1      m1     0.0239
    399 C           11.4331   -10.0626    -7.0851 C       1      m1    -0.0181
    400 C           12.2238   -11.6584   -10.0488 C       1      m1    -0.0008
    401 C           12.9392   -10.6646    -6.9470 C       1      m1    -0.0040
    402 C           13.3905   -11.9955    -9.1666 C       1      m1     0.0025
    403 C           13.6194   -11.6360    -7.8288 C       1      m1    -0.0230
    404 H           14.0549    -9.8839    -8.0321 H       1      m1     0.0266
    405 H           14.5950   -12.1486    -7.5192 H       1      m1     0.0208
    406 C           14.8139   -12.3656    -9.5236 C       1      m1    -0.0050
    407 C           15.1123   -10.2546   -10.6179 C       1      m1    -0.0246
    408 C          -13.6501    -6.3554    -7.6127 C       1      m1    -0.0011
    409 H          -12.3369    -8.7779    -8.1710 H       1      m1     0.0209
    410 C          -12.2272    -7.0155    -9.6128 C       1      m1     0.0011
    411 C          -11.9509    -8.5155    -9.1971 C       1      m1    -0.0171
    412 C          -11.8728    -9.4419    -9.9368 C       1      m1     0.0052
    413 C          -11.3112    -6.5906    -6.6629 C       1      m1    -0.0022
    414 C          -10.8319    -6.4310   -10.3056 C       1      m1    -0.0046
    415 C          -10.5168    -7.8701    -6.4782 C       1      m1    -0.0015
    416 C           -9.9469    -6.7707    -9.2401 C       1      m1    -0.0060
    417 C           -9.4745    -8.2209    -7.2605 C       1      m1     0.0118
    418 C           -9.2318    -9.5791    -7.2976 C       1      m1     0.0219
    419 C           -9.1382    -7.0385    -8.1253 C       1      m1    -0.0189
    420 H           -8.3455    -9.0306    -8.8919 H       1      m1     0.0375
    421 H           -8.0627    -7.0595    -8.3481 H       1      m1     0.0241
    422 H           -6.2677    -7.1951    -7.8464 H       1      m1     0.0767
    423 O           -5.9884    -9.1382    -6.9513 O       1      m1    -0.5378
    424 C           -5.5990    -6.3337    -7.7153 C       1      m1    -0.0089
    425 C           -5.4399    -6.6783   -10.2247 C       1      m1     0.0019
    426 C           -5.1760    -8.0730   -10.3056 C       1      m1    -0.0159
    427 H           -5.1656    -8.2961    -9.2807 H       1      m1     0.0541
    428 C           -5.0515    -5.8964    -8.9892 C       1      m1    -0.0011
    429 H           -2.9121    -8.0537    -9.6582 H       1      m1     0.0709
    430 C           -2.3180    -7.7006    -8.7861 C       1      m1    -0.0085
    431 C           -1.9542    -6.3933    -8.9402 C       1      m1     0.0217
    432 C           -1.5427    -8.3882    -7.6868 C       1      m1     0.0022
    433 C           -1.0751    -9.5446    -8.1080 C       1      m1     0.0014
    434 C            0.2886    -8.5442   -10.1642 C       1      m1     0.0109
    435 H            0.7263    -8.0699    -9.3253 H       1      m1     0.0153
    436 H            2.7125    -8.2256    -6.9115 H       1      m1     0.0156
    437 C            2.2731    -7.2724    -6.6506 C       1      m1    -0.0218
    438 C            2.8770    -6.0158    -6.9977 C       1      m1    -0.0201
    439 H            3.3356    -5.9592    -7.9220 H       1      m1     0.0197
    440 H            3.9673    -9.2909    -9.7922 H       1      m1     0.0155
    441 C            5.1017    -9.3732    -9.6607 C       1      m1    -0.0178
    442 C            5.9048    -8.5015    -8.6929 C       1      m1    -0.0027
    443 C            6.0250    -8.7812    -7.4719 C       1      m1    -0.0056
    444 C            7.0796    -7.9108    -9.5546 C       1      m1     0.0063
    445 C            7.5245    -6.7796    -9.0115 C       1      m1    -0.0106
    446 C            8.4369    -9.0764    -9.4124 C       1      m1    -0.0274
    447 H            8.8398    -9.2178   -10.3957 H       1      m1     0.0193
    448 C            9.3605    -9.2874    -8.1356 C       1      m1    -0.0390
    449 C            9.6469    -7.7437    -7.7751 C       1      m1     0.3006
    450 H            9.5650    -7.1332    -8.6917 H       1      m1    -0.0196
    451 O           10.2420    -7.3737    -6.6768 O       1      m1    -0.4692
    452 C           11.4630    -6.0641    -9.8793 C       1      m1     0.0028
    453 H           11.7296    -8.9717    -7.1838 H       1      m1     0.0662
    454 C           12.1058    -9.0205    -9.9487 C       1      m1    -0.0074
    455 C           12.6818    -6.9129    -9.7542 C       1      m1     0.0023
    456 C           13.0038    -8.2345    -9.1678 C       1      m1     0.0082
    457 C           13.9276    -9.7636    -6.2260 C       1      m1    -0.0251
    458 C           14.2562    -9.0306    -8.6793 C       1      m1    -0.0224
    459 C           15.1016    -9.0181    -9.8488 C       1      m1     0.0045
    460 C          -14.6217    -5.2320    -7.5571 C       1      m1    -0.0062
    461 H           14.9983    -3.3800    -8.0160 H       1      m1     0.0466
    462 C          -14.1825    -3.8586    -7.7431 C       1      m1     0.0111
    463 C          -12.8165    -5.9619    -8.7268 C       1      m1    -0.0004
    464 C          -12.6982    -3.7261    -8.1470 C       1      m1     0.0060
    465 C          -11.8949    -4.7765    -8.8863 C       1      m1    -0.0234
    466 H          -12.0376    -2.9702    -7.7038 H       1      m1     0.0268
    467 H          -10.8194    -4.9837    -9.0945 H       1      m1     0.0245
    468 C          -10.7402    -5.3666    -6.5608 C       1      m1    -0.0065
    469 C           -9.8680    -4.2604    -6.5762 C       1      m1    -0.0162
    470 C           -9.4661    -2.9542    -9.4791 C       1      m1    -0.0014
    471 C           -8.5811    -3.6133    -8.5502 C       1      m1    -0.0121
    472 C           -8.6848    -4.6152    -7.4878 C       1      m1     0.0017
    473 C           -8.0381    -2.4388    -7.7514 C       1      m1    -0.0013
    474 C           -7.4076    -4.4859    -6.7579 C       1      m1    -0.0151
    475 C           -7.2496    -3.1136    -6.7989 C       1      m1    -0.0136
    476 C           -5.4903    -5.4896    -6.6268 C       1      m1    -0.0280
    477 H           -5.5400    -2.6134   -10.2763 H       1      m1     0.0138
    478 C           -5.1538    -3.7358   -10.1466 C       1      m1    -0.0220
    479 C           -4.5766    -4.4076    -6.4827 C       1      m1     0.0013
    480 C           -4.5091    -4.4191    -8.9614 C       1      m1     0.0067
    481 C           -4.1431    -3.8834    -7.7907 C       1      m1    -0.0064
    482 C           -3.5467    -2.5969    -7.6644 C       1      m1    -0.0056
    483 C           -2.0781    -2.7227    -7.6658 C       1      m1    -0.0080
    484 C           -1.4305    -2.3579    -6.3395 C       1      m1    -0.0026
    485 C           -1.4117    -5.3958    -9.2181 C       1      m1     0.0117
    486 C           -1.0194    -3.4320    -8.3371 C       1      m1     0.0017
    487 C           -0.9476    -4.2490    -9.4876 C       1      m1    -0.0203
    488 H           -0.8452    -3.9918    -6.2398 H       1      m1     0.0251
    489 H           -0.1581    -4.2747   -10.1702 H       1      m1     0.0262
    490 C            0.3492    -2.9770    -7.9092 C       1      m1    -0.0185
    491 H            1.5095    -2.9417    -8.1277 H       1      m1     0.0261
    492 C            2.7675    -4.7003    -6.4632 C       1      m1    -0.0056
    493 C            3.1595    -4.1583    -9.2474 C       1      m1    -0.0084
    494 C            2.9069    -3.3153    -7.0455 C       1      m1    -0.0087
    495 C            3.1373    -3.1088    -8.2733 C       1      m1    -0.0065
    496 C            4.3321    -4.8448    -9.1847 C       1      m1     0.0249
    497 C            4.2751    -1.9424    -9.9985 C       1      m1    -0.0022
    498 H            4.7550    -4.8264    -6.9085 H       1      m1     0.0223
    499 C            4.9856    -5.5569   -10.1589 C       1      m1    -0.0481
    500 C            5.1089    -5.1024    -7.8733 C       1      m1    -0.0433
    501 H            5.3722    -6.1885    -7.7632 H       1      m1     0.0214
    502 C            6.2553    -3.1874    -8.0609 C       1      m1    -0.0019
    503 C            6.4835    -4.5750    -8.3713 C       1      m1     0.0099
    504 C            7.6423    -5.3093    -8.9337 C       1      m1     0.0071
    505 C            8.8045    -4.5578    -9.8120 C       1      m1    -0.0039
    506 C            9.9810    -4.0181    -8.9056 C       1      m1     0.0069
    507 C           10.1196    -2.7570    -8.2494 C       1      m1    -0.0020
    508 C           11.0964    -4.8380    -9.2470 C       1      m1     0.0075
    509 C           11.4486    -2.8002    -7.8039 C       1      m1     0.0048
    510 C           12.1082    -4.1379    -8.1021 C       1      m1    -0.0227
    511 H           12.6949    -4.8165    -7.5866 H       1      m1     0.0375
    512 H           12.7495    -3.9616    -9.1592 H       1      m1     0.0159
    513 H           13.0185    -3.2899   -10.4998 H       1      m1     0.0205
    514 C           14.6829    -4.8943    -6.5902 C       1      m1    -0.0054
    515 C          -14.6448     0.4376    -9.3615 C       1      m1     0.2228
    516 O          -14.7425    -1.0766    -9.1127 O       1      m1    -0.4762
    517 C          -13.6066     0.8009   -10.1979 C       1      m1    -0.0458
    518 H          -12.6749     0.2468   -10.3311 H       1      m1     0.0894
    519 H          -11.4737    -1.3503    -7.2408 H       1      m1     0.0312
    520 H          -10.7771     2.3259   -10.1922 H       1      m1     0.2366
    521 C           -9.4805    -1.5537    -9.7193 C       1      m1    -0.0090
    522 H           -8.5030     1.4611    -6.6383 H       1      m1     0.0167
    523 C           -8.8692     0.6298    -9.3532 C       1      m1    -0.0768
    524 C           -8.7618    -0.5916    -8.8523 C       1      m1     0.0090
    525 C           -8.9341     1.9999    -8.6669 C       1      m1     0.0082
    526 H           -7.9678    -0.1780    -6.9004 H       1      m1     0.0167
    527 C           -7.8037    -0.8592    -7.7684 C       1      m1    -0.0409
    528 H           -6.7296    -0.9564    -7.8877 H       1      m1     0.0164
    529 C           -4.2546     1.0949    -7.4229 C       1      m1    -0.0148
    530 C           -4.1584    -1.4155    -7.3761 C       1      m1    -0.0103
    531 C           -3.4869    -0.2073    -7.9777 C       1      m1    -0.0052
    532 H           -2.8595     1.9543    -9.6614 H       1      m1     0.0223
    533 H           -2.6243    -1.4793    -9.1862 H       1      m1     0.0223
    534 C           -2.6173    -0.3866    -9.0340 C       1      m1    -0.0260
    535 C           -1.8128    -0.0376   -10.1747 C       1      m1     0.0014
    536 C           -0.6543     1.8284    -8.0015 C       1      m1    -0.0220
    537 H           -0.6066     0.0691    -6.1458 H       1      m1     0.0375
    538 C           -0.0328     1.3791   -10.3775 C       1      m1    -0.0225
    539 C            0.0422     0.9883    -9.0688 C       1      m1     0.0070
    540 C            0.3040    -1.4292    -8.3997 C       1      m1    -0.0031
    541 C            0.6224    -1.2983    -9.7595 C       1      m1    -0.0049
    542 C            1.1967    -0.8012    -7.4164 C       1      m1     0.0046
    543 C            1.6502    -0.2699   -10.2145 C       1      m1    -0.0060
    544 C            1.5903     0.7723    -9.0726 C       1      m1    -0.0040
    545 H            2.5270     0.7497    -7.1478 H       1      m1     0.0235
    546 C            2.2953    -0.0767    -7.9291 C       1      m1    -0.0115
    547 C            3.1276     1.4278    -9.6270 C       1      m1    -0.0014
    548 C            3.6522    -1.9452    -8.6650 C       1      m1     0.0007
    549 C            3.9048    -0.6261    -7.9703 C       1      m1    -0.0160
    550 C            4.2341     1.8396    -6.3197 C       1      m1    -0.0061
    551 H            4.5077    -0.2271    -8.8069 H       1      m1     0.0250
    552 C            4.5933    -0.4587    -6.6231 C       1      m1    -0.0018
    553 C            5.6239    -1.5638   -10.2728 C       1      m1     0.0018
    554 C            5.9699    -1.2541    -6.4420 C       1      m1    -0.0397
    555 C            6.4604    -1.9442    -7.7119 C       1      m1     0.0053
    556 C            6.9255    -0.7316    -9.5218 C       1      m1    -0.0047
    557 H            6.6163    -0.3570    -6.5722 H       1      m1     0.0280
    558 C            7.1871     0.7077    -9.3287 C       1      m1    -0.0024
    559 C            7.6087    -1.5650    -8.6160 C       1      m1    -0.0035
    560 C            8.6599     0.9855    -9.2019 C       1      m1    -0.0041
    561 C            9.0608    -1.6004    -8.5039 C       1      m1    -0.0039
    562 C            9.4565    -0.2121    -8.4206 C       1      m1    -0.0001
    563 C            9.6230    -0.0207    -7.0630 C       1      m1    -0.0182
    564 H            9.2282     0.8257    -6.4321 H       1      m1     0.0266
    565 C           11.1018    -0.3694    -7.0756 C       1      m1     0.0025
    566 C           11.9448    -1.5742    -7.1587 C       1      m1    -0.0028
    567 C           13.6600    -0.1178   -10.1040 C       1      m1    -0.0129
    568 H           13.4214    -2.1154    -8.8670 H       1      m1    -0.0076
    569 C           14.0642    -1.3899    -9.4404 C       1      m1     0.1968
    570 C           14.3648     0.9952    -9.3929 C       1      m1    -0.0344
    571 H          -14.4900     4.7100    -7.3720 H       1      m1     0.0321
    572 C          -13.9221     4.0473    -6.5987 C       1      m1    -0.0155
    573 H          -13.3002     1.8857    -7.1480 H       1      m1     0.0270
    574 C          -12.9090     2.9909    -7.1376 C       1      m1    -0.0148
    575 C          -12.1658     3.3468    -8.1186 C       1      m1     0.0047
    576 C          -11.5532     4.0884    -9.0044 C       1      m1    -0.0061
    577 C          -10.3873     4.7870    -9.5946 C       1      m1    -0.0087
    578 H           -9.2089     4.3802    -7.4126 H       1      m1     0.0214
    579 C           -9.1476     3.5233    -6.7792 C       1      m1    -0.0199
    580 C           -8.9388     2.2882    -7.2303 C       1      m1    -0.0215
    581 C           -9.0613     4.1444    -9.9896 C       1      m1    -0.0040
    582 C           -8.4156     2.8168    -9.7089 C       1      m1    -0.0043
    583 C           -7.7995     4.8186    -9.8968 C       1      m1    -0.0036
    584 H           -7.1475     3.7455    -7.9734 H       1      m1     0.0237
    585 C           -6.7692     4.6150    -8.6219 C       1      m1    -0.0325
    586 H           -5.5230     4.5671    -8.7143 H       1      m1     0.0258
    587 H           -3.7159     3.9932    -7.1487 H       1      m1     0.0494
    588 C           -2.4445     5.8246    -8.6752 C       1      m1     0.0060
    589 H           -2.1129     3.6934    -8.3980 H       1      m1     0.0188
    590 C           -1.6998     4.6357    -8.0506 C       1      m1    -0.0282
    591 H           -1.7297     1.7125    -7.8828 H       1      m1     0.0215
    592 H           -0.7186     5.1808    -8.4285 H       1      m1     0.0156
    593 C           -0.7525     4.2605    -6.7911 C       1      m1    -0.0007
    594 C           -0.3174     2.7953    -6.9861 C       1      m1     0.0050
    595 H            2.1106     4.9974    -9.8216 H       1      m1     0.0170
    596 H            3.1121     4.5491    -7.1598 H       1      m1     0.0187
    597 C            3.1741     5.0771    -9.9441 C       1      m1    -0.0210
    598 C            3.2776     3.7098   -10.3200 C       1      m1    -0.0007
    599 C            4.1227     4.6675    -7.2635 C       1      m1    -0.0218
    600 C            3.9490     1.7885    -8.6458 C       1      m1    -0.0056
    601 C            4.7247     5.6078    -6.6387 C       1      m1    -0.0055
    602 C            4.7956     2.3226    -7.6112 C       1      m1    -0.0048
    603 C            5.0725     3.7896    -8.0103 C       1      m1     0.0020
    604 C            6.2261     4.8868   -10.1103 C       1      m1    -0.0038
    605 C            6.2758     4.1585    -8.8191 C       1      m1    -0.0003
    606 C            6.7508     1.9800    -9.9849 C       1      m1     0.0030
    607 C            6.9167     2.8074    -8.7367 C       1      m1    -0.0182
    608 H            6.9589     2.6586    -7.6618 H       1      m1     0.0223
    609 C            8.6752     3.3201   -10.1940 C       1      m1    -0.0010
    610 C            9.2046     2.1786    -9.5830 C       1      m1    -0.0012
    611 H            9.8799     5.2021    -8.6344 H       1      m1     0.0198
    612 H            9.9917     3.7868    -6.7874 H       1      m1     0.0167
    613 C           10.5940     2.6414    -9.0286 C       1      m1    -0.0059
    614 C           10.9047     3.7315    -9.8959 C       1      m1    -0.0066
    615 H           11.3507     6.6112    -6.1592 H       1      m1     0.0158
    616 C           11.1063     3.4105    -6.5294 C       1      m1    -0.0155
    617 C           11.4007     1.9773    -6.1705 C       1      m1    -0.0077
    618 C           11.5995     2.6502    -7.9014 C       1      m1    -0.0015
    619 C           12.2977     4.1697   -10.2427 C       1      m1    -0.0027
    620 C           12.2416     4.4994    -6.4557 C       1      m1     0.0068
    621 C           13.0811     2.8027    -8.1771 C       1      m1     0.0004
    622 C           13.2691     4.0751    -7.3149 C       1      m1    -0.0226
    623 C           13.7074     4.3647    -9.7834 C       1      m1    -0.0030
    624 C           13.8479     2.2938    -9.3754 C       1      m1     0.0063
    625 C           14.0931     5.7374   -10.2124 C       1      m1     0.0120
    626 H           14.1789     4.7991    -7.3932 H       1      m1     0.0245
    627 C           14.6921     3.3362    -9.9142 C       1      m1    -0.0014
    628 O          -13.4545     7.9663    -8.4874 O       1      m1    -0.4812
    629 C          -13.4154     8.1798   -10.1544 C       1      m1     0.1998
    630 C          -12.1123     7.8711    -7.8898 C       1      m1     0.2515
    631 C          -12.1967     7.1844    -6.6159 C       1      m1    -0.0441
    632 H          -11.9554     9.7269    -6.7186 H       1      m1     0.0285
    633 C          -10.8550     7.7727    -8.4673 C       1      m1    -0.0516
    634 C          -10.8473     8.1194    -9.8697 C       1      m1     0.0327
    635 C           -9.7975     6.7601    -7.6512 C       1      m1     0.0133
    636 C           -8.6293     6.4869    -7.9889 C       1      m1     0.0155
    637 O           -8.1490     9.6520    -7.3548 O       1      m1    -0.4181
    638 C           -8.0017     6.0123   -10.5902 C       1      m1    -0.0014
    639 C           -7.2254     6.0880    -8.2059 C       1      m1     0.0214
    640 C           -6.6975     6.9211   -10.0890 C       1      m1     0.0025
    641 C           -6.3174     8.1705   -10.3523 C       1      m1    -0.0119
    642 C           -5.9235     6.7141    -8.7061 C       1      m1    -0.0157
    643 C           -6.0866     9.0627    -9.1136 C       1      m1     0.0587
    644 C           -5.7122     8.0610    -7.9126 C       1      m1    -0.0014
    645 H           -5.0150     6.1824    -8.5891 H       1      m1     0.0468
    646 C           -5.4869     8.3486    -6.6810 C       1      m1     0.1868
    647 C           -2.9832     6.3204    -9.8706 C       1      m1    -0.0082
    648 C           -2.9246     8.5875   -10.0605 C       1      m1    -0.0013
    649 C           -2.6745     7.0782    -8.0494 C       1      m1    -0.0059
    650 C           -2.4605     8.3874    -8.6992 C       1      m1     0.0032
    651 H           -2.4284     6.8060    -6.9991 H       1      m1     0.0642
    652 C           -1.3166     9.5843    -6.8750 C       1      m1     0.0088
    653 C           -1.1310     8.7492    -8.1510 C       1      m1    -0.0256
    654 H           -0.1374     8.8577    -8.7872 H       1      m1     0.0209
    655 C            0.4972     7.9458    -6.4936 C       1      m1     0.0141
    656 H            0.6863     7.5607    -9.1149 H       1      m1     0.0140
    657 C            0.8265     7.9879   -10.0962 C       1      m1    -0.0247
    658 C            1.4147     8.8745    -7.1459 C       1      m1     0.0074
    659 C            1.8846     9.0651   -10.2948 C       1      m1     0.0004
    660 C            2.2152     9.7038    -7.7495 C       1      m1    -0.0239
    661 H            4.2772     9.4904    -9.0966 H       1      m1     0.0252
    662 C            5.1796     9.2629    -9.7350 C       1      m1    -0.0370
    663 C            5.8202     6.3525   -10.0071 C       1      m1    -0.0016
    664 C            6.6088     8.7002    -9.1868 C       1      m1     0.0028
    665 C            6.8608     7.2341    -9.3000 C       1      m1    -0.0029
    666 C            7.3926     8.7741    -7.6672 C       1      m1    -0.0054
    667 C            8.1496     6.7442    -8.5952 C       1      m1     0.0016
    668 C            8.3929     7.6688    -7.2763 C       1      m1    -0.0042
    669 C            9.1908     5.8400    -9.1132 C       1      m1    -0.0208
    670 C            9.7402     8.4410    -6.6249 C       1      m1    -0.0239
    671 C            9.4289     9.7856    -7.2851 C       1      m1     0.0041
    672 H           10.5521     7.8546    -6.9853 H       1      m1     0.0183
    673 H           12.7604    10.1256    -8.2709 H       1      m1     0.0241
    674 C           13.9514     9.1806    -9.5005 C       1      m1     0.0245
    675 C           14.5663     8.3489   -10.5674 C       1      m1     0.0249
    676 H          -14.9113    11.6952    -8.7629 H       1      m1     0.0246
    677 C          -13.5792    13.5672   -10.0518 C       1      m1    -0.0172
    678 H          -13.2305    12.5253   -10.4202 H       1      m1     0.0229
    679 H          -11.6378    11.4931    -8.3225 H       1      m1     0.0213
    680 C          -11.2195    13.2645   -10.4479 C       1      m1    -0.0066
    681 C          -11.0030    10.6839    -7.9235 C       1      m1     0.0004
    682 C          -11.0422    10.3714    -6.4311 C       1      m1     0.0060
    683 C          -10.2669    10.8958   -10.1370 C       1      m1     0.0004
    684 C           -9.9102    10.4371    -8.9842 C       1      m1    -0.0372
    685 C           -8.4879    10.5672    -8.2906 C       1      m1     0.2809
    686 C           -7.6148    11.5369    -8.5121 C       1      m1    -0.0616
    687 H           -7.1485    13.8158   -10.4179 H       1      m1     0.0217
    688 C           -6.4345    12.1144    -8.1748 C       1      m1     0.0590
    689 C           -5.3708    10.0840    -9.5422 C       1      m1     0.0035
    690 C           -5.2101    12.5350    -8.1026 C       1      m1    -0.0094
    691 C           -5.1047    13.7017    -7.0962 C       1      m1     0.0060
    692 C           -4.6184    11.0920   -10.0921 C       1      m1    -0.0217
    693 C           -4.0793    11.8629    -8.8873 C       1      m1     0.0120
    694 C           -2.7682    12.3667    -9.0366 C       1      m1    -0.0106
    695 C           -1.3622    12.6088    -9.0483 C       1      m1    -0.0208
    696 C           -0.7961    12.0788    -6.2658 C       1      m1    -0.0036
    697 C           -0.8667    12.0748    -7.7117 C       1      m1     0.0028
    698 H           -0.8438    13.0395    -9.9397 H       1      m1     0.0184
    699 C            2.2947    10.0666    -9.1886 C       1      m1     0.0054
    700 H            2.3617    10.6830    -7.3984 H       1      m1     0.0321
    701 C            3.1360    11.2132    -9.4388 C       1      m1    -0.0620
    702 C            4.0263    11.7911    -8.5668 C       1      m1     0.0421
    703 C            4.4377    11.8604    -7.2532 C       1      m1    -0.0136
    704 H            5.5381    10.1598   -10.2872 H       1      m1     0.0253
    705 C            5.7966    11.8428    -7.8451 C       1      m1    -0.0030
    706 C            7.0500    12.2220    -8.7172 C       1      m1    -0.0023
    707 C            7.4719    13.3456    -9.4350 C       1      m1     0.0097
    708 C            7.9772    10.9417    -8.9695 C       1      m1    -0.0029
    709 C            7.7889    10.5053   -10.4312 C       1      m1    -0.0058
    710 C            8.3588     9.9769    -7.8447 C       1      m1    -0.0055
    711 H            9.1852    12.7669    -7.0814 H       1      m1     0.0184
    712 C            9.9028    13.0121    -9.5501 C       1      m1    -0.0004
    713 C           10.4470    10.2546   -10.2297 C       1      m1     0.0031
    714 C           10.6889    10.6110    -7.7565 C       1      m1    -0.0264
    715 H           10.7332    11.1029    -6.7715 H       1      m1     0.0219
    716 C           11.1204    10.7815    -9.0858 C       1      m1    -0.0012
    717 C           11.2548    12.5170    -8.9349 C       1      m1    -0.0204
    718 H           11.7841    12.8189    -7.9722 H       1      m1     0.0185
    719 C           12.2924    12.7571   -10.0458 C       1      m1    -0.0001
    720 C           13.6606    10.1051    -8.7165 C       1      m1    -0.0149
    721 C           14.4485    11.9365    -7.1367 C       1      m1    -0.0041
    722 C           14.6990    11.1706    -8.1984 C       1      m1     0.0013
    723 C          -14.8483   -10.4955    -2.6749 C       1      m1     0.0448
    724 C          -14.1171   -11.3616    -3.8540 C       1      m1    -0.0212
    725 H          -13.8310   -12.2690    -3.2667 H       1      m1     0.0204
    726 C          -12.7577   -10.5137    -4.2354 C       1      m1    -0.0013
    727 C          -12.0582   -13.5721    -5.5834 C       1      m1    -0.0059
    728 C          -11.7858   -11.0077    -5.1250 C       1      m1    -0.0051
    729 C          -11.3368   -12.3551    -5.5010 C       1      m1    -0.0041
    730 C          -10.8606   -10.1121    -5.6827 C       1      m1     0.0023
    731 H          -10.6946   -11.8624    -3.0071 H       1      m1     0.0232
    732 C           -9.6303   -11.6994    -3.1888 C       1      m1    -0.0378
    733 C           -9.4907   -10.2578    -2.9374 C       1      m1    -0.0115
    734 C           -9.6808   -13.0464    -2.1607 C       1      m1    -0.0073
    735 C           -9.1552   -13.1001    -6.2268 C       1      m1    -0.0164
    736 H           -9.0477   -11.9439    -4.1305 H       1      m1     0.0225
    737 H           -7.9540   -10.0945    -4.0446 H       1      m1     0.0290
    738 H           -6.4204   -10.5193    -4.5167 H       1      m1     0.0185
    739 H           -5.6374   -11.0649    -3.0779 H       1      m1     0.0131
    740 C           -5.5630   -10.3098    -3.8978 C       1      m1    -0.0300
    741 C           -4.3257   -11.6962    -5.4799 C       1      m1     0.0012
    742 C           -4.2730   -10.5052    -4.6049 C       1      m1    -0.0501
    743 C           -3.7694   -12.9755    -5.2232 C       1      m1    -0.0009
    744 H           -3.5140   -10.5711    -3.7905 H       1      m1     0.0266
    745 C           -3.0441   -13.4469    -3.9764 C       1      m1    -0.0088
    746 C           -1.4029   -13.0960    -3.7499 C       1      m1    -0.0004
    747 C           -0.6129   -12.2911    -4.5962 C       1      m1    -0.0011
    748 C            0.2452   -11.4624    -5.3219 C       1      m1    -0.0050
    749 C            1.1750   -10.3868    -4.5252 C       1      m1     0.0037
    750 C            2.3139   -11.0070    -4.8341 C       1      m1     0.0012
    751 C            2.2956   -11.8077    -6.1987 C       1      m1     0.0051
    752 H            3.0688   -13.7509    -4.2396 H       1      m1     0.0205
    753 C            3.7543   -10.8589    -4.5280 C       1      m1    -0.0262
    754 H            4.1083   -10.4483    -3.5332 H       1      m1     0.0190
    755 C            4.4322   -10.9648    -5.6447 C       1      m1     0.0029
    756 H            5.4881   -12.6378    -4.4363 H       1      m1     0.0179
    757 C            5.9396   -10.5721    -5.6666 C       1      m1    -0.0180
    758 C            6.2216   -13.4948    -4.0529 C       1      m1    -0.0354
    759 H            6.8497   -13.1074    -3.1663 H       1      m1     0.0191
    760 H            6.1990   -10.5910    -4.4975 H       1      m1     0.0160
    761 C            7.3388    13.8706    -5.1078 C       1      m1     0.0000
    762 C            7.6777   -12.5336    -6.0610 C       1      m1    -0.0042
    763 H            8.6304   -11.6162    -3.6967 H       1      m1     0.0169
    764 C            9.6698   -10.8940    -5.3777 C       1      m1     0.0112
    765 C            9.7355   -11.3009    -3.9622 C       1      m1    -0.0215
    766 C           10.7924   -13.5743    -3.0391 C       1      m1    -0.0229
    767 C           10.6653   -12.6053    -4.1425 C       1      m1     0.0045
    768 C           10.8745   -10.2783    -3.3716 C       1      m1     0.0143
    769 C           11.0754   -10.4454    -5.7056 C       1      m1     0.0244
    770 C           11.7496   -13.0100    -5.2119 C       1      m1    -0.0298
    771 C           11.8102   -10.5663    -4.4334 C       1      m1    -0.0277
    772 H           12.5318   -12.4509    -5.5670 H       1      m1     0.0204
    773 H           12.8357   -10.3660    -4.1994 H       1      m1     0.0202
    774 H           14.2827   -13.4629    -4.1094 H       1      m1     0.0181
    775 H           14.3083   -11.7017    -4.4987 H       1      m1     0.0141
    776 C          -15.1045   -11.5068    -4.9915 C       1      m1    -0.0143
    777 C          -15.1465   -10.5610    -5.9581 C       1      m1    -0.0139
    778 C          -14.6066    -7.3788    -4.7864 C       1      m1    -0.0082
    779 C          -14.5869    -8.6612    -4.0243 C       1      m1     0.0099
    780 C          -13.3253    -9.2644    -4.4599 C       1      m1    -0.0028
    781 C          -13.1921    -7.0728    -5.1819 C       1      m1    -0.0060
    782 C          -12.8085    -6.4187    -6.5116 C       1      m1    -0.0079
    783 C          -12.4026    -8.2107    -4.9148 C       1      m1    -0.0081
    784 C          -11.4107    -8.7774    -5.7899 C       1      m1    -0.0045
    785 H          -11.6223    -8.5701    -2.9449 H       1      m1     0.0244
    786 C           -9.6130    -6.2447    -2.4391 C       1      m1     0.0182
    787 C           -8.8818    -7.3962    -2.7747 C       1      m1     0.0115
    788 C           -8.4184    -9.5918    -3.3788 C       1      m1    -0.0289
    789 C           -7.7677    -8.2549    -2.9012 C       1      m1     0.0358
    790 H           -7.6428    -6.0315    -5.8433 H       1      m1    -0.0010
    791 C           -6.2785    -8.1259    -2.9942 C       1      m1    -0.0311
    792 C           -5.7217    -6.9424    -2.3284 C       1      m1     0.2356
    793 C           -5.1182    -8.8678    -3.3960 C       1      m1     0.0026
    794 C           -4.3764    -6.8434    -2.7852 C       1      m1    -0.0470
    795 C           -4.1524    -7.8560    -3.7411 C       1      m1     0.0175
    796 H           -4.1082    -9.5119    -5.4939 H       1      m1     0.0238
    797 C           -2.6930    -7.6615    -4.1046 C       1      m1     0.0056
    798 C           -2.6289    -6.2514    -3.9300 C       1      m1    -0.0011
    799 C           -2.0773    -7.9288    -5.2948 C       1      m1    -0.0015
    800 C           -1.2812    -7.7981    -6.2546 C       1      m1    -0.0194
    801 H           -0.9392    -6.7584    -5.9287 H       1      m1     0.0166
    802 H            0.2747    -8.8073    -3.4018 H       1      m1     0.0418
    803 C            1.0143    -9.2761    -3.8005 C       1      m1    -0.0151
    804 H            1.8587    -6.8706    -2.7306 H       1      m1     0.0372
    805 C            1.9330    -8.2761    -4.3104 C       1      m1    -0.0039
    806 C            1.8876    -7.1588    -5.2184 C       1      m1    -0.0024
    807 C            3.2998    -8.3859    -3.5977 C       1      m1    -0.0023
    808 C            3.8692    -7.6969    -2.3806 C       1      m1     0.0010
    809 C            4.2791    -8.1886    -4.6260 C       1      m1    -0.0052
    810 C            5.0777    -7.2010    -2.4160 C       1      m1     0.0072
    811 H            5.4284    -7.1466    -6.0316 H       1      m1     0.0206
    812 C            5.1702    -8.0996    -5.4694 C       1      m1    -0.0211
    813 C            6.1001    -6.6646    -2.9407 C       1      m1    -0.0019
    814 C            6.1016    -9.2384    -6.2592 C       1      m1     0.0114
    815 H            8.1437    -8.0839    -3.3748 H       1      m1     0.0267
    816 C            8.2895    -6.9060    -3.5764 C       1      m1    -0.0099
    817 C            9.5843    -6.4894    -3.8636 C       1      m1     0.0382
    818 C           10.6376    -9.3308    -2.3497 C       1      m1    -0.0194
    819 C           10.9052    -5.9997    -4.0051 C       1      m1     0.0230
    820 C           11.2610    -8.0297    -2.4628 C       1      m1     0.0082
    821 C           12.2532    -6.5239    -4.3723 C       1      m1     0.0277
    822 C           12.5734    -7.7671    -3.3501 C       1      m1    -0.0005
    823 H           12.6477    -8.5926    -4.1605 H       1      m1     0.0272
    824 H           13.9016    -8.6838    -6.0743 H       1      m1     0.0266
    825 C           13.8210    -7.4088    -2.7175 C       1      m1    -0.0634
    826 C           14.5957    -6.7082    -4.7032 C       1      m1    -0.0027
    827 C           15.0078    -9.2007    -2.9253 C       1      m1    -0.0805
    828 C          -12.8264    -2.4693    -5.4245 C       1      m1    -0.0177
    829 H          -12.9137    -3.4390    -5.1321 H       1      m1     0.0161
    830 H          -10.1127    -1.6490    -2.1485 H       1      m1     0.0234
    831 H           -9.9943    -3.6580    -5.5907 H       1      m1     0.0238
    832 H           -8.2225    -2.4512    -3.7577 H       1      m1     0.0656
    833 H           -7.4531    -5.2884    -3.8744 H       1      m1     0.3458
    834 O           -6.8573    -4.8287    -4.2993 O       1      m1    -0.6485
    835 C           -6.6606    -5.4799    -5.6486 C       1      m1     0.2443
    836 H           -6.4721    -3.0238    -5.9478 H       1      m1     0.0574
    837 H           -4.5888    -3.6465    -5.7467 H       1      m1     0.0482
    838 H           -4.1107    -3.7772    -2.5079 H       1      m1     0.0962
    839 C           -3.4209    -5.8886    -2.7412 C       1      m1     0.0423
    840 H           -1.6355    -5.8959    -4.3353 H       1      m1     0.0310
    841 O           -1.7866    -2.7769    -3.1003 O       1      m1    -0.4763
    842 C           -0.0289    -2.9819    -6.3757 C       1      m1    -0.0020
    843 H            0.4501    -3.6653    -4.2438 H       1      m1     0.0595
    844 C            0.8006    -3.4105    -5.1359 C       1      m1    -0.0230
    845 C            1.6866    -2.0900    -5.1298 C       1      m1     0.0006
    846 C            1.8829    -5.8968    -3.0414 C       1      m1    -0.0158
    847 C            1.6950    -4.6772    -5.4510 C       1      m1    -0.0078
    848 C            1.7194    -5.7538    -4.4895 C       1      m1    -0.0045
    849 C            2.2856    -4.8379    -2.1475 C       1      m1     0.0129
    850 C            2.4858    -2.1504    -6.2018 C       1      m1    -0.0027
    851 H            3.2995    -4.0826    -3.9934 H       1      m1     0.0212
    852 C            3.3499    -4.0229    -2.9212 C       1      m1    -0.0183
    853 C            4.4622    -3.7364    -2.0170 C       1      m1    -0.0170
    854 C            5.9138    -4.0002    -2.3622 C       1      m1    -0.0020
    855 C            6.7080    -4.5520    -3.4800 C       1      m1    -0.0189
    856 H            6.8607    -4.1810    -4.5689 H       1      m1     0.0234
    857 C            7.1694    -5.8558    -3.0876 C       1      m1     0.0058
    858 H           10.1017    -4.0992    -3.4743 H       1      m1     0.0221
    859 C           11.0448    -4.4854    -3.8001 C       1      m1    -0.0259
    860 C           12.0249    -3.7241    -4.5390 C       1      m1     0.0037
    861 C           12.9076    -3.3427    -5.5233 C       1      m1    -0.0017
    862 C           12.8939    -2.0166    -6.1544 C       1      m1    -0.0008
    863 C           13.3831    -5.9344    -5.1019 C       1      m1     0.0067
    864 C           13.8767    -4.5422    -5.7052 C       1      m1    -0.0018
    865 C          -14.9376    -1.3786    -4.6537 C       1      m1     0.0023
    866 H          -13.9709    -0.3726    -2.6810 H       1      m1     0.0166
    867 C          -13.8356    -1.8599    -5.1417 C       1      m1     0.0098
    868 H          -12.2249     0.3493    -3.0428 H       1      m1     0.0176
    869 C          -11.6043    -1.8352    -6.2402 C       1      m1    -0.0194
    870 C          -11.4237     1.0775    -3.4160 C       1      m1    -0.0174
    871 C          -11.2600    -1.0141    -5.1176 C       1      m1     0.0006
    872 C          -10.8146    -0.2333    -4.0533 C       1      m1    -0.0052
    873 C          -10.0640     1.6309    -2.7218 C       1      m1    -0.0163
    874 C           -9.7675    -0.9752    -2.9688 C       1      m1    -0.0204
    875 C           -9.4209     0.2771    -2.1084 C       1      m1     0.0073
    876 C           -8.3845    -1.4272    -3.3601 C       1      m1    -0.0101
    877 C           -8.2574     0.6164    -2.8176 C       1      m1    -0.0098
    878 C           -7.6280     1.9391    -2.5345 C       1      m1    -0.0012
    879 H           -7.1502     0.7330    -5.9098 H       1      m1     0.0128
    880 C           -7.5012    -0.4208    -3.2731 C       1      m1     0.0289
    881 C           -6.7103     1.5432    -5.3191 C       1      m1    -0.0325
    882 C           -6.0238    -0.3574    -3.8888 C       1      m1     0.0279
    883 C           -5.8456     0.7243    -4.2750 C       1      m1    -0.0118
    884 C           -5.1064    -1.3431    -4.6458 C       1      m1     0.0358
    885 C           -4.8619     1.4774    -3.5567 C       1      m1    -0.0019
    886 C           -4.5972    -1.3025    -5.9834 C       1      m1    -0.0218
    887 C           -4.1254     2.0228    -6.3570 C       1      m1    -0.0318
    888 C           -4.0554     0.3259    -2.7598 C       1      m1     0.0397
    889 H           -3.4132     1.2005    -5.8073 H       1      m1     0.0420
    890 C           -3.0877    -0.6382    -2.9931 C       1      m1     0.0170
    891 C           -2.6565    -1.0179    -4.2854 C       1      m1     0.0741
    892 C           -2.1080    -1.7788    -2.2933 C       1      m1     0.2654
    893 C           -1.9855    -1.6139    -5.3284 C       1      m1     0.0390
    894 O           -1.3596     1.5629    -3.4320 O       1      m1    -0.6461
    895 H           -0.4403     1.5307    -3.4575 H       1      m1     0.3016
    896 C            0.3884    -0.1733    -6.2675 C       1      m1    -0.0239
    897 C            0.5101    -1.0891    -5.1113 C       1      m1     0.0278
    898 C            1.8409     0.9408    -1.9915 C       1      m1    -0.0020
    899 C            2.3634     1.8280    -3.0842 C       1      m1    -0.0106
    900 C            3.4789    -1.1604    -5.6325 C       1      m1    -0.0039
    901 C            3.6023     1.7286    -3.8614 C       1      m1    -0.0056
    902 C            3.8642    -1.1760    -4.2531 C       1      m1    -0.0074
    903 C            4.7367     0.8448    -4.2893 C       1      m1     0.0051
    904 C            4.7836    -0.4196    -3.3722 C       1      m1    -0.0001
    905 C            5.1368     0.8459    -5.6837 C       1      m1    -0.0013
    906 H            5.6667    -1.4418    -5.4815 H       1      m1     0.0267
    907 H            7.0368     1.1732    -2.0303 H       1      m1     0.2155
    908 O            7.8541     1.7421    -2.4688 O       1      m1    -0.5615
    909 H           11.0851    -0.3947    -3.7768 H       1      m1     0.0222
    910 C           11.1579    -0.0929    -2.5802 C       1      m1     0.0010
    911 C           11.9532     0.5068    -6.4587 C       1      m1    -0.0004
    912 C           12.3409     0.7500    -2.6682 C       1      m1     0.0017
    913 C           13.2254     0.4212    -5.7794 C       1      m1    -0.0218
    914 C           13.5799    -0.9342    -5.7004 C       1      m1     0.0179
    915 H           14.0522    -0.1898    -3.7676 H       1      m1     0.0242
    916 H           13.3524     1.4112    -5.4298 H       1      m1     0.0222
    917 C           14.2434    -1.0821    -4.2822 C       1      m1    -0.0265
    918 C          -14.3197     5.6697    -3.1714 C       1      m1    -0.0005
    919 C          -13.9808     5.1633    -4.4685 C       1      m1    -0.0016
    920 C          -13.6664     3.9668    -5.1900 C       1      m1    -0.0005
    921 C          -12.9269     2.8536    -4.6219 C       1      m1    -0.0041
    922 C          -12.3680     1.9035    -4.2574 C       1      m1    -0.0056
    923 C          -11.7549     4.9914    -2.0857 C       1      m1    -0.0044
    924 C          -11.9014     3.4096    -2.2809 C       1      m1    -0.0018
    925 H          -10.8854     4.8778    -5.0560 H       1      m1     0.0206
    926 C          -11.0117     5.5733    -3.4133 C       1      m1    -0.0052
    927 C          -10.7496     5.8073    -4.6723 C       1      m1    -0.0230
    928 H           -9.9168     2.1762    -3.7648 H       1      m1     0.0189
    929 C           -8.6237     3.6877    -5.4390 C       1      m1    -0.0052
    930 C           -8.4769     5.1154    -4.6403 C       1      m1     0.0017
    931 C           -8.1046     4.5171    -3.4217 C       1      m1    -0.0213
    932 C           -7.8776     3.0313    -3.4947 C       1      m1    -0.0043
    933 C           -7.8898     2.5112    -4.8610 C       1      m1    -0.0040
    934 H           -7.7790     5.0545    -2.4434 H       1      m1     0.0160
    935 H           -5.9905     1.9223    -6.1297 H       1      m1     0.0227
    936 C           -4.4429     5.8405    -3.6212 C       1      m1    -0.0641
    937 O           -4.2930     5.9998    -6.1158 O       1      m1    -0.5148
    938 C           -4.3281     5.1134    -4.8089 C       1      m1     0.2375
    939 C           -4.1846     2.6189    -3.7277 C       1      m1     0.0385
    940 C           -4.2447     5.6539    -2.2309 C       1      m1     0.0168
    941 C           -4.1417     3.8273    -4.8400 C       1      m1    -0.0667
    942 C           -3.7520     3.4327    -6.1052 C       1      m1     0.0299
    943 C           -3.3115     3.2067    -2.6232 C       1      m1    -0.0516
    944 C           -1.9258     2.8476    -2.8349 C       1      m1     0.2757
    945 C           -1.2419     4.0899    -2.4392 C       1      m1    -0.0534
    946 C           -0.4472     5.1264    -6.0356 C       1      m1     0.0045
    947 C            0.0590     4.7141    -2.6679 C       1      m1    -0.0085
    948 H            0.5255     5.3556    -2.0520 H       1      m1     0.0211
    949 C            0.7743     2.6122    -6.2095 C       1      m1     0.0006
    950 C            0.7000     3.8141    -3.2064 C       1      m1     0.0035
    951 C            1.6270     2.8445    -3.7148 C       1      m1    -0.0103
    952 C            1.8420     2.4670    -5.4133 C       1      m1    -0.0073
    953 H            2.7138     5.3059    -5.1624 H       1      m1     0.0159
    954 C            2.9842     5.5892    -4.0676 C       1      m1    -0.0047
    955 C            3.1309     2.1003    -5.3095 C       1      m1    -0.0063
    956 C            3.9001     4.9747    -3.3610 C       1      m1    -0.0120
    957 C            4.4153     5.8351    -2.4133 C       1      m1    -0.0220
    958 H            4.4208     3.9979    -3.5627 H       1      m1     0.0198
    959 H            6.1400     4.3222    -4.5854 H       1      m1     0.0253
    960 C            7.0988     5.6799    -5.9755 C       1      m1     0.0223
    961 C            7.0863     4.7139    -5.0064 C       1      m1    -0.0051
    962 C            8.3165     3.8677    -4.4095 C       1      m1     0.0173
    963 H            8.1564     2.8566    -4.8627 H       1      m1     0.0489
    964 C            9.5010     4.6863    -4.6486 C       1      m1     0.0098
    965 C           11.0007     4.7754    -4.8430 C       1      m1    -0.0010
    966 C           10.9793     4.7492    -2.2272 C       1      m1    -0.0187
    967 H           11.5554     1.8371    -4.2591 H       1      m1     0.0306
    968 C           11.6976     4.3707    -3.6351 C       1      m1    -0.0015
    969 C           11.9786     5.7485    -5.5824 C       1      m1    -0.0347
    970 C           12.4377     2.0110    -3.6073 C       1      m1    -0.0203
    971 H           12.6146     6.5391    -5.1227 H       1      m1     0.0184
    972 C           12.7723     3.3177    -3.3320 C       1      m1     0.0002
    973 C           14.2770     3.2783    -2.7620 C       1      m1    -0.0047
    974 C           14.7066     2.1241    -2.0852 C       1      m1     0.0021
    975 C           15.0769     4.7224    -2.5142 C       1      m1     0.0007
    976 H          -14.8108     7.2065    -4.9929 H       1      m1     0.0267
    977 C          -15.0113     9.2581    -2.2051 C       1      m1    -0.0168
    978 C          -14.1323     6.4006    -5.3679 C       1      m1    -0.0262
    979 C          -13.8718     7.1338    -2.6283 C       1      m1    -0.0066
    980 H          -13.9845     9.5260    -2.5774 H       1      m1     0.0200
    981 C          -13.1524     6.7777    -5.9716 C       1      m1     0.0557
    982 C          -12.7256     7.6959    -2.9606 C       1      m1    -0.0058
    983 C          -11.5333     8.3307    -3.2749 C       1      m1    -0.0070
    984 C          -10.9771     7.1850    -5.3495 C       1      m1    -0.0017
    985 C          -10.6228     8.1441    -4.5311 C       1      m1     0.0055
    986 C           -9.7858     9.5222    -2.1474 C       1      m1    -0.0060
    987 C           -9.7740     6.9425    -6.2011 C       1      m1     0.0116
    988 C           -9.1635     8.6604    -4.5703 C       1      m1    -0.0270
    989 C           -8.9564     9.5680    -3.3609 C       1      m1     0.0009
    990 H           -8.7326     9.2036    -5.4023 H       1      m1     0.1024
    991 C           -8.6725     6.4231    -5.2038 C       1      m1     0.0059
    992 C           -7.9909     7.5649    -4.3342 C       1      m1    -0.0374
    993 H           -7.4555     7.4765    -3.3216 H       1      m1     0.0199
    994 H           -7.4286     7.8234    -5.3280 H       1      m1     0.0664
    995 C           -5.8717     8.9919    -4.5725 C       1      m1     0.2597
    996 O           -6.0317     9.5543    -5.9208 O       1      m1    -0.4563
    997 C           -6.0160     9.5207    -3.3082 C       1      m1    -0.0594
    998 C           -5.2803     9.0258    -2.2243 C       1      m1     0.0179
    999 C           -5.3567     7.8760    -4.6512 C       1      m1    -0.1265
   1000 C           -5.2596     6.9287    -3.7521 C       1      m1     0.0587
   1001 C           -4.9097     7.6678    -2.5711 C       1      m1    -0.0168
   1002 C           -4.7781     7.4444    -5.8804 C       1      m1     0.2054
   1003 H           -2.0620     8.1105    -2.8302 H       1      m1     0.0304
   1004 C           -1.6066     7.9236    -3.6939 C       1      m1    -0.0422
   1005 H           -1.8912     7.2103    -4.3598 H       1      m1     0.0353
   1006 C           -1.2050     8.8933    -4.5681 C       1      m1     0.0285
   1007 C           -0.8114     8.5951    -5.9240 C       1      m1    -0.0049
   1008 H           -0.1981     6.1631    -4.0856 H       1      m1     0.0207
   1009 C            0.1043     6.0393    -5.2081 C       1      m1    -0.0091
   1010 C            1.0826     7.1297    -5.4297 C       1      m1    -0.0590
   1011 C            1.7003     7.7091    -4.2938 C       1      m1     0.2398
   1012 O            1.8258     9.1435    -3.7096 O       1      m1    -0.5066
   1013 C            2.4207     6.7545    -3.6359 C       1      m1    -0.0516
   1014 C            3.0327     9.2728    -2.6377 C       1      m1     0.2254
   1015 C            3.5090     6.9678    -2.4855 C       1      m1     0.0315
   1016 H            4.0052     8.5019    -6.7068 H       1      m1     0.0256
   1017 C            4.8226     8.8049    -6.0287 C       1      m1    -0.0126
   1018 C            5.6462     6.3588    -6.0914 C       1      m1     0.0085
   1019 C            5.7823     7.8455    -5.9147 C       1      m1    -0.0152
   1020 H            6.6803     9.7932    -3.5175 H       1      m1     0.0594
   1021 H            6.4888     8.2672    -5.1025 H       1      m1     0.0578
   1022 C            8.0496     6.8278    -6.0184 C       1      m1    -0.0463
   1023 O            7.9354     7.4383    -3.5094 O       1      m1    -0.5196
   1024 C            8.5667     7.5673    -4.8772 C       1      m1     0.2356
   1025 C            8.7469     8.2147    -2.4549 C       1      m1     0.2611
   1026 C            9.4039     8.7194    -5.1867 C       1      m1    -0.0501
   1027 C            9.4310     9.3071    -2.9418 C       1      m1    -0.1092
   1028 C            9.5223     9.8348    -4.3087 C       1      m1     0.0296
   1029 H           10.9790     8.8002    -3.4736 H       1      m1     0.0279
   1030 C           11.8942     9.1899    -3.5823 C       1      m1    -0.0325
   1031 C           13.2806     8.7536    -3.1263 C       1      m1     0.0028
   1032 H           13.3341     6.4774    -3.0462 H       1      m1     0.0176
   1033 C           13.8822     7.4318    -2.9668 C       1      m1    -0.0378
   1034 C           14.4955     9.6467    -3.2464 C       1      m1    -0.0056
   1035 H           14.3346     7.6862    -4.0395 H       1      m1     0.0188
   1036 H          -14.9517    10.2786    -5.6306 H       1      m1     0.0290
   1037 C          -14.0326    12.4061    -5.6557 C       1      m1     0.0025
   1038 C          -13.9842    10.8094    -5.7460 C       1      m1    -0.0061
   1039 C          -13.1147    13.3668    -5.5385 C       1      m1    -0.0044
   1040 C          -12.8628    10.6736    -4.9117 C       1      m1    -0.0026
   1041 C          -11.5417    10.9529    -5.2671 C       1      m1    -0.0037
   1042 H          -11.0019    11.7943    -2.1767 H       1      m1     0.0236
   1043 C          -10.8300    11.9470    -4.4182 C       1      m1     0.0054
   1044 C          -10.7681    13.1775    -5.2896 C       1      m1    -0.0005
   1045 C          -10.6265    12.1733    -2.9906 C       1      m1    -0.0244
   1046 C           -9.9486    13.3743    -2.7905 C       1      m1    -0.0007
   1047 C           -9.3415    13.5144    -5.4797 C       1      m1    -0.0125
   1048 H           -8.5853    12.6173    -5.0364 H       1      m1     0.0285
   1049 C           -8.0958    10.5499    -2.9758 C       1      m1    -0.0050
   1050 C           -6.7737    10.9088    -3.3945 C       1      m1    -0.0015
   1051 H           -7.0577    10.8980    -4.4725 H       1      m1     0.0726
   1052 H           -5.7438    12.9778    -2.0702 H       1      m1     0.0149
   1053 C           -4.1888    13.5590    -6.0203 C       1      m1    -0.0141
   1054 H           -3.5822    12.6678    -5.9802 H       1      m1     0.0312
   1055 C           -3.1848    13.4294    -3.0528 C       1      m1    -0.0038
   1056 C           -1.5535    10.8404    -6.0497 C       1      m1     0.0021
   1057 C           -0.9543    13.4846    -3.2788 C       1      m1    -0.0017
   1058 C           -1.0090    10.3783    -4.6694 C       1      m1     0.0177
   1059 C           -0.6061    12.1450    -2.9599 C       1      m1     0.0062
   1060 C            0.1244    11.3865    -4.1428 C       1      m1    -0.0246
   1061 C            0.3183    12.2819    -5.3110 C       1      m1     0.0001
   1062 H            1.0422    10.9048    -4.0650 H       1      m1     0.1011
   1063 C            1.7129    12.7196    -5.2457 C       1      m1     0.0042
   1064 C            2.9990    13.1517    -4.9318 C       1      m1    -0.0181
   1065 C            4.1361    12.2929    -4.9756 C       1      m1     0.0066
   1066 C            4.4604    11.1979    -5.8622 C       1      m1     0.0042
   1067 C            5.1746    10.0526    -5.2840 C       1      m1     0.0128
   1068 C            5.2886    12.8308    -3.9794 C       1      m1    -0.0049
   1069 C            5.6664    11.5748    -3.3091 C       1      m1     0.0112
   1070 C            6.0879    10.3128    -4.1270 C       1      m1    -0.0310
   1071 C            8.2330    12.8282    -5.0413 C       1      m1    -0.0167
   1072 H            8.5706    13.0761    -2.9224 H       1      m1     0.0317
   1073 H            7.9027    11.7640    -4.3734 H       1      m1     0.0244
   1074 C            9.2245    13.1769    -6.0245 C       1      m1    -0.0141
   1075 C            9.4865    10.5989    -2.1338 C       1      m1     0.3007
   1076 C            9.6712    13.3274    -2.6294 C       1      m1     0.0033
   1077 C           10.3921    12.4425    -5.5977 C       1      m1    -0.0081
   1078 C           10.2800    11.7352    -2.8135 C       1      m1    -0.0388
   1079 C           10.4946    11.1349    -4.3407 C       1      m1    -0.0089
   1080 H           11.7791   -13.6742    -2.9466 H       1      m1     0.0200
   1081 C           11.5198    13.3059    -5.3211 C       1      m1     0.0027
   1082 C           11.7873    10.2837    -4.2982 C       1      m1     0.0053
   1083 H           12.3845    12.3489    -1.8500 H       1      m1     0.0227
   1084 C           12.6958    12.4290    -5.4150 C       1      m1    -0.0079
   1085 C           12.9246    11.3211    -4.3400 C       1      m1    -0.0007
   1086 C           13.9905    12.6315    -6.0190 C       1      m1    -0.0022
   1087 C           14.1757    11.0229    -3.6143 C       1      m1    -0.0057
   1088 C           14.8513    12.3826    -3.1537 C       1      m1    -0.0017
   1089 C           14.8167    13.5321    -4.2135 C       1      m1    -0.0245
   1090 C           15.1096    13.1891    -5.5612 C       1      m1     0.0003
   1091 C          -14.8230   -11.0226    -1.4045 C       1      m1    -0.0772
   1092 C          -14.5407   -10.7000     0.6484 C       1      m1    -0.0341
   1093 H          -14.5213   -12.0797    -1.2821 H       1      m1     0.0279
   1094 C          -13.9598   -11.1654     1.8461 C       1      m1     0.0051
   1095 H          -12.3434   -10.2848    -0.3332 H       1      m1     0.0261
   1096 C          -10.4432   -13.6868     1.6022 C       1      m1    -0.0018
   1097 C           -9.0013   -13.5321     1.1510 C       1      m1    -0.0028
   1098 C           -8.7179   -13.3319    -1.1618 C       1      m1    -0.0108
   1099 C           -6.4965   -13.1559     1.4901 C       1      m1    -0.0066
   1100 H           -6.2657   -13.1953    -0.4996 H       1      m1     0.0129
   1101 H           -5.7993   -10.6134     1.2383 H       1      m1     0.0117
   1102 C           -5.5687   -11.8514     1.6968 C       1      m1    -0.0301
   1103 H           -4.6627   -12.3381     1.2466 H       1      m1     0.0110
   1104 H           -4.6845    -9.9566    -0.6665 H       1      m1     0.0208
   1105 H           -3.3532   -11.1234    -0.1423 H       1      m1     0.0292
   1106 C           -1.8892   -11.4310     1.9659 C       1      m1     0.1758
   1107 C           -1.4549   -12.3811     1.0301 C       1      m1     0.1531
   1108 C           -1.6134   -13.0307    -0.2761 C       1      m1    -0.0512
   1109 H           -0.8565   -12.5196    -0.8929 H       1      m1     0.0623
   1110 O           -0.7157   -11.0956     1.1811 O       1      m1    -0.4587
   1111 C            2.4085   -13.2855    -0.1584 C       1      m1     0.0143
   1112 C            3.5489   -10.8827    -0.6634 C       1      m1    -0.0006
   1113 C            3.4864   -12.3584    -0.5977 C       1      m1    -0.0039
   1114 C            4.4567   -13.2500     2.1467 C       1      m1     0.0009
   1115 C            4.8079   -12.9969    -1.1511 C       1      m1    -0.0087
   1116 C            5.5230   -13.2381     1.0160 C       1      m1    -0.0057
   1117 C            5.7150   -12.4956    -0.2147 C       1      m1    -0.0047
   1118 C            6.7544   -13.6435     1.6777 C       1      m1    -0.0059
   1119 C            6.9576   -10.0624    -0.7668 C       1      m1    -0.0048
   1120 C            7.2120   -12.3235    -0.5256 C       1      m1    -0.0026
   1121 C            7.5445   -11.3434    -1.4357 C       1      m1    -0.0249
   1122 C            8.2781   -13.3126     0.1375 C       1      m1     0.0033
   1123 H            8.5339   -11.4002    -1.9869 H       1      m1     0.0178
   1124 H            9.1340   -10.6042     0.0114 H       1      m1     0.0167
   1125 C            9.6001   -13.5206    -0.1031 C       1      m1    -0.0051
   1126 C           10.1127   -11.2276     0.2045 C       1      m1    -0.0240
   1127 H           10.0762    -9.1142    -1.3509 H       1      m1     0.0162
   1128 C           10.4201   -12.5381     0.2219 C       1      m1    -0.0012
   1129 C           10.7840   -10.1025     0.7116 C       1      m1    -0.0012
   1130 C           11.6762   -12.9383     0.8652 C       1      m1    -0.0069
   1131 C           11.9224   -11.9452     1.9780 C       1      m1    -0.0091
   1132 C           12.1913   -10.6271     1.3835 C       1      m1    -0.0008
   1133 C           13.3242   -10.2875     1.8957 C       1      m1     0.0086
   1134 H           13.5587   -13.4220    -1.4744 H       1      m1     0.0173
   1135 C           14.5408   -13.8274    -1.1161 C       1      m1    -0.0553
   1136 H           14.9981   -13.1699    -0.4235 H       1      m1     0.0211
   1137 C           14.9723   -10.0644    -0.4238 C       1      m1     0.2236
   1138 C          -14.3394    -6.2215     2.1271 C       1      m1    -0.0078
   1139 H          -13.5086    -6.3250     0.0531 H       1      m1     0.0406
   1140 C          -13.5526    -7.4075     2.1914 C       1      m1    -0.0116
   1141 C          -12.0687    -7.0972     1.7428 C       1      m1    -0.0023
   1142 C          -12.0993    -9.3888     0.1710 C       1      m1    -0.0073
   1143 C          -11.7735    -8.2913    -0.6506 C       1      m1     0.0162
   1144 C          -11.6550    -7.1277     0.2629 C       1      m1    -0.0047
   1145 C          -11.5279    -9.6633     1.5556 C       1      m1    -0.0045
   1146 C          -11.4376    -7.9906    -2.1177 C       1      m1    -0.0224
   1147 C          -10.9571    -6.2621    -0.5231 C       1      m1    -0.0014
   1148 C          -10.9629    -6.6622    -2.0284 C       1      m1    -0.0030
   1149 H           -9.9749   -10.0175    -1.9631 H       1      m1     0.0168
   1150 H           -7.4554    -8.4380     0.8772 H       1      m1     0.0197
   1151 C           -6.9175    -6.2040     1.5508 C       1      m1     0.0349
   1152 C           -6.7066    -7.6913     1.1704 C       1      m1    -0.0189
   1153 O           -6.8278    -6.0860    -1.4470 O       1      m1    -0.4872
   1154 C           -5.3821    -7.7036     1.0609 C       1      m1     0.0221
   1155 C           -4.0801    -7.7316     0.9096 C       1      m1    -0.0418
   1156 C           -3.6712    -6.3979     0.4610 C       1      m1    -0.0464
   1157 C           -3.5986    -9.9706    -0.4754 C       1      m1    -0.0947
   1158 H           -2.9108    -9.9871    -1.3006 H       1      m1     0.0577
   1159 C           -2.9164    -8.6398     0.1715 C       1      m1     0.2289
   1160 C           -2.3754    -6.5413    -0.0169 C       1      m1     0.2074
   1161 O           -1.6648    -7.8978    -0.2122 O       1      m1    -0.4753
   1162 H            0.2936    -8.8937     1.1717 H       1      m1     0.1071
   1163 C            0.8052    -8.1321     1.7623 C       1      m1     0.0012
   1164 C            2.2136    -8.3487     1.9417 C       1      m1    -0.0200
   1165 C            3.5635    -7.5837     1.5111 C       1      m1     0.0339
   1166 C            3.4353    -9.6976    -1.1034 C       1      m1     0.0018
   1167 C            3.6816    -8.3880    -1.1240 C       1      m1     0.0085
   1168 C            4.2400    -7.9982     0.2785 C       1      m1     0.0099
   1169 C            5.6847    -7.9719     0.3556 C       1      m1     0.0102
   1170 C            6.4665    -9.2617    -0.2982 C       1      m1    -0.0155
   1171 C            6.6218    -7.3834     1.3089 C       1      m1     0.0085
   1172 C            8.1682    -7.1769     1.4169 C       1      m1    -0.0021
   1173 C            9.0258    -8.0845     1.4244 C       1      m1    -0.0057
   1174 C            9.8109    -6.5855    -1.1806 C       1      m1    -0.0212
   1175 H            9.4643    -7.7143    -0.9056 H       1      m1     0.0183
   1176 C            9.9303    -9.0858     1.3897 C       1      m1    -0.0161
   1177 C           11.2231    -6.8680    -1.5089 C       1      m1     0.0051
   1178 C           12.3518    -6.3314     1.9504 C       1      m1     0.0090
   1179 C           13.3704    -6.1018    -2.1182 C       1      m1     0.0149
   1180 C           14.6656    -8.2745    -2.0608 C       1      m1     0.2900
   1181 O           14.9002    -8.5118    -0.6486 O       1      m1    -0.5172
   1182 H           14.7944    -8.5498     1.7766 H       1      m1     0.0641
   1183 C          -14.7115    -4.5062     0.8119 C       1      m1     0.0050
   1184 C          -14.1765    -5.8302     0.7507 C       1      m1     0.0075
   1185 C          -14.3313    -3.3531    -0.0255 C       1      m1    -0.0035
   1186 C          -12.9799    -2.6078    -0.0242 C       1      m1    -0.0061
   1187 C          -11.8003    -2.1198    -0.0007 C       1      m1    -0.0226
   1188 C          -10.7542    -2.7717     1.0002 C       1      m1    -0.0007
   1189 C          -10.1669    -5.0974    -0.3313 C       1      m1    -0.0068
   1190 C           -9.8902    -3.8922     0.6148 C       1      m1    -0.0013
   1191 C           -9.1693    -5.4167    -1.3836 C       1      m1    -0.0332
   1192 C           -8.6043    -4.2158     1.1297 C       1      m1     0.0089
   1193 C           -7.9192    -5.5099     0.7689 C       1      m1    -0.0544
   1194 C           -7.9586    -5.5283    -0.6584 C       1      m1     0.2664
   1195 O           -5.5598    -2.2461    -1.3835 O       1      m1    -0.4950
   1196 C           -5.0907    -3.0318    -0.5408 C       1      m1     0.3299
   1197 C           -5.3015    -2.9368     1.0892 C       1      m1    -0.0490
   1198 C           -4.6837    -4.1153     1.4021 C       1      m1    -0.0293
   1199 C           -4.3922    -4.4967    -0.7980 C       1      m1    -0.0333
   1200 C           -4.3051    -5.0020     0.3151 C       1      m1     0.0215
   1201 C           -3.9778    -4.8098    -2.0221 C       1      m1     0.0302
   1202 C           -1.7640    -5.2263    -0.4329 C       1      m1    -0.0260
   1203 C           -1.2694    -2.6458    -0.1272 C       1      m1     0.0167
   1204 C           -0.9950    -4.1860    -0.4712 C       1      m1     0.0331
   1205 C           -0.6381    -2.4940     0.9284 C       1      m1    -0.0595
   1206 C            0.4100    -3.1537     1.8722 C       1      m1    -0.0158
   1207 C            0.5955    -4.3365    -0.2073 C       1      m1     0.0026
   1208 C            0.9385    -4.0560     1.3797 C       1      m1     0.0156
   1209 C            1.3589    -4.5583    -1.1974 C       1      m1     0.0135
   1210 C            2.2078    -4.5728     1.7454 C       1      m1    -0.0689
   1211 H            3.2660    -1.8430     0.0151 H       1      m1     0.0238
   1212 C            3.4074    -4.0782     1.1769 C       1      m1     0.2890
   1213 H            3.3312    -3.3476     0.5585 H       1      m1    -0.0176
   1214 H            4.2142    -3.6972    -0.9417 H       1      m1     0.0718
   1215 O            4.5494    -4.6717     0.8329 O       1      m1    -0.4907
   1216 H            6.5105    -2.0411     0.3537 H       1      m1     0.0281
   1217 C            6.5336    -4.3268    -1.1369 C       1      m1     0.0406
   1218 H            6.8637    -4.6290     0.9901 H       1      m1     0.0705
   1219 C            7.3664    -4.4668     0.0096 C       1      m1    -0.0128
   1220 C            8.7477    -4.1978    -0.3891 C       1      m1    -0.0278
   1221 C            9.4074    -5.3179    -0.7648 C       1      m1     0.0040
   1222 H            9.1057    -3.2361    -0.3504 H       1      m1     0.0190
   1223 C           12.1858    -4.8371    -0.0888 C       1      m1    -0.0014
   1224 C           12.2357    -5.7665    -1.3763 C       1      m1     0.0006
   1225 C           12.3382    -5.4799     1.1912 C       1      m1     0.0021
   1226 C           12.8366    -3.6203    -0.0901 C       1      m1    -0.0049
   1227 C           13.6080    -2.5394    -0.2011 C       1      m1    -0.0045
   1228 H           14.2410    -5.3863    -1.9194 H       1      m1     0.0252
   1229 C           14.9123    -3.8488     1.9636 C       1      m1    -0.0004
   1230 C          -15.1632    -2.1790    -0.1637 C       1      m1    -0.0023
   1231 C          -14.8322    -1.1261    -0.8703 C       1      m1    -0.0038
   1232 C          -14.5232    -0.1621    -1.7320 C       1      m1    -0.0203
   1233 H          -14.9817     1.5760     1.2392 H       1      m1     0.0279
   1234 C          -14.0931     1.5842     1.7238 C       1      m1    -0.0395
   1235 C          -12.8054     0.6615     2.0618 C       1      m1     0.0038
   1236 C          -11.5335     1.4495     1.7998 C       1      m1     0.0146
   1237 H          -11.6396    -1.0746    -0.3949 H       1      m1     0.0178
   1238 C          -10.2292     0.8514     2.0750 C       1      m1    -0.0250
   1239 H           -9.0101    -1.9223     2.2048 H       1      m1     0.0285
   1240 C           -8.8565     1.2610     1.4848 C       1      m1    -0.0001
   1241 C           -8.5896     0.4607     0.3496 C       1      m1    -0.0017
   1242 C           -8.6560    -0.1711    -0.7940 C       1      m1    -0.0262
   1243 H           -7.8432    -0.9626    -0.8650 H       1      m1     0.0632
   1244 C           -5.6707    -0.9332     2.1316 C       1      m1    -0.0055
   1245 C           -4.9386    -0.5787     0.9325 C       1      m1    -0.0049
   1246 C           -4.5442     0.6982    -0.1260 C       1      m1     0.0181
   1247 C           -4.2798     0.3403    -1.3791 C       1      m1     0.0420
   1248 H           -4.6469    -1.1208     0.0527 H       1      m1     0.0673
   1249 C           -1.7470    -1.6001    -0.8762 C       1      m1     0.1311
   1250 O           -1.4857    -0.4664     0.2968 O       1      m1    -0.4460
   1251 C           -0.7408    -1.3123     1.3557 C       1      m1     0.2383
   1252 H            1.0894     0.5355    -2.6971 H       1      m1     0.0317
   1253 C            2.8850     0.1251    -1.7377 C       1      m1     0.0009
   1254 H            2.8513    -0.5836     0.6872 H       1      m1     0.0332
   1255 C            3.6271    -0.9961     0.4241 C       1      m1    -0.0471
   1256 C            3.8343    -0.5802    -1.2328 C       1      m1     0.0004
   1257 C            4.2747     1.8120     1.7915 C       1      m1    -0.0016
   1258 C            4.9418    -1.1449     1.3092 C       1      m1     0.0136
   1259 C            5.1549    -0.3735    -1.9146 C       1      m1    -0.0159
   1260 C            5.8196     2.0514     1.6713 C       1      m1    -0.0223
   1261 C            5.9948    -1.7189     1.1491 C       1      m1    -0.0091
   1262 C            6.5689     1.6410     0.6456 C       1      m1     0.0027
   1263 C            7.8078     1.0121     0.2908 C       1      m1    -0.0359
   1264 H            7.9011     0.7469    -0.5304 H       1      m1     0.0491
   1265 C            8.4091     0.8577     1.5818 C       1      m1     0.0067
   1266 H            9.5052    -1.0382    -1.7716 H       1      m1     0.0308
   1267 C           10.4067    -0.6777    -1.3668 C       1      m1    -0.0109
   1268 C           11.1018    -1.6838    -0.6459 C       1      m1    -0.0128
   1269 H           12.5866    -1.9522     1.1597 H       1      m1     0.0135
   1270 H           11.9243     0.5036     0.0500 H       1      m1     0.0212
   1271 C           12.5599    -1.3780    -0.0940 C       1      m1    -0.0124
   1272 C           12.8803     0.1208    -0.5068 C       1      m1    -0.0244
   1273 C           13.3386     0.0667    -1.9982 C       1      m1    -0.0015
   1274 H           13.5285     0.6708     0.2806 H       1      m1     0.0157
   1275 H           14.0764    -1.0625     1.5552 H       1      m1     0.0193
   1276 C           14.6863     0.9481    -1.7473 C       1      m1    -0.0006
   1277 H          -13.8580     2.4898     1.9949 H       1      m1     0.0319
   1278 O          -12.9533     5.1139     1.4607 O       1      m1    -0.4529
   1279 C          -12.5182     3.7080     2.0372 C       1      m1     0.2098
   1280 C          -11.9874     5.9632    -0.7826 C       1      m1    -0.0526
   1281 C          -11.8723     4.8657     0.2852 C       1      m1     0.1924
   1282 C          -11.8027     2.8508     1.3090 C       1      m1    -0.0481
   1283 C          -10.9610     3.8227     0.2462 C       1      m1    -0.0354
   1284 C          -10.9643     2.5607    -1.7194 C       1      m1     0.0066
   1285 C          -10.0722     3.3070    -0.8520 C       1      m1    -0.0103
   1286 H           -9.2085     3.8492    -0.9822 H       1      m1     0.0156
   1287 C           -8.0372     4.4308     2.0996 C       1      m1    -0.0195
   1288 H           -8.1949     5.0120     1.2503 H       1      m1     0.0217
   1289 H           -7.4688     4.5871    -0.0393 H       1      m1     0.0154
   1290 C           -6.7895     2.2123    -1.4193 C       1      m1    -0.0051
   1291 C           -6.6295     5.3254    -0.2791 C       1      m1    -0.0239
   1292 C           -5.9890     2.7124    -0.3260 C       1      m1    -0.0077
   1293 C           -5.6046     4.2118     0.1046 C       1      m1    -0.0048
   1294 C           -4.7659     2.1172     0.1062 C       1      m1     0.0028
   1295 C           -4.3314     4.2905     0.8408 C       1      m1    -0.0084
   1296 C           -3.8231     2.9189     1.0302 C       1      m1     0.0025
   1297 H           -4.0065     4.0053    -0.8515 H       1      m1     0.0295
   1298 C           -3.7362     5.1763     1.9644 C       1      m1    -0.0178
   1299 C           -3.5860     4.4816    -1.5949 C       1      m1    -0.0207
   1300 C           -2.5321     2.7204     1.6602 C       1      m1     0.0220
   1301 C           -2.1207     4.5864    -1.3337 C       1      m1    -0.0151
   1302 H           -1.6763     4.1129    -0.4750 H       1      m1     0.0287
   1303 C           -1.4383     3.5856     1.2772 C       1      m1     0.0031
   1304 C           -0.5347     4.6715     1.3104 C       1      m1    -0.0058
   1305 C            0.5505     4.1548     1.8944 C       1      m1     0.0023
   1306 C            3.5974     3.0708     1.6063 C       1      m1    -0.0020
   1307 H            3.9292     5.4106    -0.1976 H       1      m1     0.0180
   1308 C            4.4021     4.2229     1.5187 C       1      m1    -0.0026
   1309 C            4.8248     4.9022     0.1485 C       1      m1    -0.0375
   1310 H            4.8342     2.4002    -1.7679 H       1      m1     0.0320
   1311 H            5.2162     5.9367    -1.7310 H       1      m1     0.0264
   1312 H            5.6477     5.5746     1.0304 H       1      m1     0.0178
   1313 C            5.5292     4.0532    -0.7937 C       1      m1     0.0071
   1314 C            5.7248     2.9641    -1.6911 C       1      m1    -0.0758
   1315 C            6.9934     4.5566    -0.5033 C       1      m1    -0.0004
   1316 C            7.1444     3.0813    -2.0266 C       1      m1     0.2099
   1317 C            7.3903     5.3399     0.7626 C       1      m1     0.0005
   1318 C            7.9496     4.1679    -1.4867 C       1      m1    -0.0395
   1319 H            9.0220     4.2997    -1.8648 H       1      m1     0.0475
   1320 C            9.2382     2.1176     1.9370 C       1      m1    -0.0048
   1321 H            9.1261     2.2176    -1.0743 H       1      m1     0.0920
   1322 C            9.8800     2.7881     0.8569 C       1      m1     0.0033
   1323 C            9.8290     2.8554    -0.4957 C       1      m1    -0.0294
   1324 H           10.6657     5.8735    -2.0542 H       1      m1     0.0219
   1325 C           10.8655     3.9793    -1.0084 C       1      m1     0.0107
   1326 C           10.6537     4.1142     1.4012 C       1      m1     0.0005
   1327 C           11.0173     4.7664     0.2664 C       1      m1    -0.0224
   1328 H           11.6468     5.6626     0.3980 H       1      m1     0.0155
   1329 H           13.7372     5.6062     0.5732 H       1      m1     0.0221
   1330 C           14.4685     4.9444    -1.5427 C       1      m1    -0.0020
   1331 C           14.4358     5.7060    -0.3883 C       1      m1     0.0031
   1332 H          -13.1692     6.2733    -0.8210 H       1      m1     0.0563
   1333 H          -12.7587     9.3285    -0.6969 H       1      m1     0.0264
   1334 H          -11.4983     7.4896     1.0150 H       1      m1     0.0371
   1335 C          -11.6932     9.0450    -0.7229 C       1      m1    -0.0372
   1336 C          -11.4593     9.7689     1.9283 C       1      m1    -0.0237
   1337 H          -11.5458     7.9646    -0.4632 H       1      m1     0.0196
   1338 C          -11.0325     9.0352    -2.1221 C       1      m1    -0.0038
   1339 H          -11.2185     6.6880    -1.1908 H       1      m1     0.0202
   1340 C          -11.0527     9.9134     0.5426 C       1      m1     0.0049
   1341 C           -8.0274     7.6926     1.8711 C       1      m1    -0.0170
   1342 C           -7.8155     7.6133     0.3791 C       1      m1    -0.0093
   1343 C           -6.8988     6.5657    -0.0930 C       1      m1    -0.0082
   1344 H           -6.3593     9.4578    -0.2208 H       1      m1     0.0253
   1345 C           -5.5003     9.5410    -0.6910 C       1      m1    -0.0414
   1346 H           -4.8646     7.3438     1.7531 H       1      m1     0.0213
   1347 H           -4.6535     9.1166    -0.0446 H       1      m1     0.0186
   1348 C           -4.4207     6.7752    -1.6407 C       1      m1    -0.0274
   1349 H           -4.3779     7.3559    -0.8118 H       1      m1     0.0183
   1350 C           -2.6005     6.2619     1.8151 C       1      m1    -0.0030
   1351 H           -0.0557    10.0228    -0.3621 H       1      m1     0.0274
   1352 H            1.9328     9.2795     1.6720 H       1      m1     0.0172
   1353 C            3.6419     8.3096    -1.8625 C       1      m1    -0.0622
   1354 C            3.9925     9.2918     0.6476 C       1      m1    -0.0018
   1355 C            4.5098     8.4409    -0.5542 C       1      m1     0.0034
   1356 C            5.1184     9.6546     1.3177 C       1      m1     0.0010
   1357 C            5.8104     8.1975    -1.0136 C       1      m1    -0.0073
   1358 H            5.8717     7.5025    -1.9725 H       1      m1     0.0559
   1359 C            6.4492     9.1411     1.1636 C       1      m1    -0.0005
   1360 C            6.5688     8.2577     0.1701 C       1      m1     0.0140
   1361 H            7.3780     9.4107     1.9648 H       1      m1     0.0248
   1362 C            8.0924     7.6813     0.0503 C       1      m1     0.0235
   1363 C            8.2598     6.4724     0.9168 C       1      m1    -0.0072
   1364 C            8.4916     8.0195    -1.1413 C       1      m1    -0.0127
   1365 H           11.8543     8.0919     1.8705 H       1      m1     0.0179
   1366 C           12.6458     8.8125     1.5741 C       1      m1    -0.0213
   1367 C           14.0076     8.1014     1.9136 C       1      m1    -0.0092
   1368 H           13.6587     7.0975     1.9808 H       1      m1     0.0205
   1369 C           14.5205     8.3818     0.3620 C       1      m1     0.0033
   1370 C           14.5601     9.6979    -0.0224 C       1      m1     0.0058
   1371 C           14.9212     7.1752    -0.4807 C       1      m1     0.0077
   1372 C           15.1427     7.5962    -1.9143 C       1      m1     0.0009
   1373 C          -14.9382    10.1854    -1.0168 C       1      m1    -0.0030
   1374 C          -15.0827    12.7973    -1.8517 C       1      m1     0.0028
   1375 C          -14.6566    11.5940    -1.0614 C       1      m1    -0.0062
   1376 C          -14.0598    11.6966     1.2575 C       1      m1    -0.0166
   1377 C          -13.7767    12.2777    -0.0934 C       1      m1    -0.0011
   1378 H          -13.4224   -13.1483     1.8279 H       1      m1     0.0201
   1379 H          -13.0785    11.7857     1.9016 H       1      m1     0.0213
   1380 C          -12.7218    13.3005     0.2736 C       1      m1    -0.0055
   1381 C          -11.4516    13.7576     0.4953 C       1      m1    -0.0174
   1382 H          -10.4823    13.6157    -0.1561 H       1      m1     0.0222
   1383 C           -9.8349    10.5743     0.0109 C       1      m1    -0.0222
   1384 H           -9.3957    11.2459     0.8179 H       1      m1     0.0171
   1385 C           -9.0881    10.1927    -1.0779 C       1      m1    -0.0027
   1386 C           -8.4110    13.6210    -0.0686 C       1      m1    -0.0012
   1387 C           -8.0453    11.0124    -1.6632 C       1      m1     0.0022
   1388 C           -7.2529    12.5331     0.2295 C       1      m1    -0.0085
   1389 C           -7.2552    11.9490    -1.1519 C       1      m1    -0.0006
   1390 H           -7.4782    11.8820     1.3064 H       1      m1     0.0155
   1391 C           -6.2990    13.6563     0.3480 C       1      m1    -0.0325
   1392 C           -6.1993    11.8804    -2.2478 C       1      m1    -0.0088
   1393 H           -5.3616    13.3494     0.5097 H       1      m1     0.0180
   1394 C           -5.3166    11.0938    -1.1859 C       1      m1     0.0050
   1395 H           -4.4996    12.0572     1.3101 H       1      m1     0.0192
   1396 C           -4.0183    11.6699    -0.9557 C       1      m1    -0.0028
   1397 C           -3.7379    11.7836     0.5506 C       1      m1    -0.0241
   1398 C           -3.3388    12.9499    -1.6917 C       1      m1    -0.0102
   1399 C           -2.3982    11.6635     0.9469 C       1      m1     0.0018
   1400 C           -2.4776    13.7407    -0.8710 C       1      m1     0.0005
   1401 C           -1.0341    11.1062     0.5842 C       1      m1    -0.0096
   1402 C            0.1064    11.0408    -0.2962 C       1      m1    -0.0211
   1403 C            0.0988    11.9823    -1.6496 C       1      m1     0.0094
   1404 C            1.0086    12.8071    -1.6350 C       1      m1    -0.0012
   1405 H            1.7112    12.7491     1.1529 H       1      m1     0.0239
   1406 H            2.2937    10.2166     0.2170 H       1      m1     0.0238
   1407 C            2.0061    13.6683    -1.3169 C       1      m1    -0.0014
   1408 C            2.4031    13.5181     0.9380 C       1      m1    -0.0189
   1409 C            2.7088     9.9023     1.2774 C       1      m1    -0.0384
   1410 C            3.1671    10.4676    -2.1231 C       1      m1    -0.0365
   1411 C            3.2283    13.5000     2.0081 C       1      m1     0.0025
   1412 C            3.2909    12.9891    -1.4862 C       1      m1    -0.0057
   1413 C            3.5898    11.5694    -1.4899 C       1      m1     0.0099
   1414 C            4.7205    13.4578    -1.5102 C       1      m1    -0.0025
   1415 C            5.0313    11.3848    -1.8020 C       1      m1    -0.0080
   1416 H            5.3977    10.3403    -1.8566 H       1      m1     0.0377
   1417 C            5.7375    12.5371    -1.1571 C       1      m1    -0.0253
   1418 H            5.2427    12.3221    -0.2250 H       1      m1     0.0306
   1419 H            6.6943    12.8132    -1.2649 H       1      m1     0.0554
   1420 C            8.0088    13.6011     1.1203 C       1      m1     0.0028
   1421 C            8.4819    12.3508     1.4353 C       1      m1     0.0187
   1422 O            8.5996    10.7994    -1.1751 O       1      m1    -0.4732
   1423 C            9.1098    11.3897     1.6317 C       1      m1     0.0282
   1424 C           10.0521    13.2223    -1.0565 C       1      m1     0.0206
   1425 C           10.1843    10.4670     1.9719 C       1      m1     0.0079
   1426 C           10.8151    12.1998    -0.5969 C       1      m1     0.0335
   1427 C           11.6214    11.6735    -1.8021 C       1      m1    -0.0432
   1428 C           11.4423    11.0433     1.4554 C       1      m1    -0.0018
   1429 C           11.5601    12.2867     0.7003 C       1      m1    -0.0156
   1430 H           11.8099    10.7551    -1.4503 H       1      m1     0.0263
   1431 C           12.0399    13.5064     1.3299 C       1      m1    -0.0050
   1432 C           12.6622    10.0688     1.0328 C       1      m1     0.0046
   1433 H           13.8294    11.9082     0.7175 H       1      m1     0.0174
   1434 C           13.9572    10.8210     0.6801 C       1      m1    -0.0199
   1435 H           14.0597    13.1511    -0.5788 H       1      m1     0.0208
   1436 C           15.0409    11.1988     1.8531 C       1      m1    -0.0059
   1437 C          -14.4382   -13.7116     3.5923 C       1      m1    -0.0054
   1438 C          -14.2584   -11.2646     3.2366 C       1      m1    -0.0024
   1439 H          -13.7930   -10.4120     5.6524 H       1      m1     0.0082
   1440 C          -13.2991   -10.9577     4.5176 C       1      m1    -0.0340
   1441 H          -13.0731   -11.7839     4.9397 H       1      m1     0.0202
   1442 C          -12.6948   -10.1756     2.3155 C       1      m1     0.0000
   1443 C          -12.3179   -10.1702     3.7676 C       1      m1    -0.0127
   1444 C           -9.7574   -13.8008     4.0347 C       1      m1    -0.0187
   1445 H          -10.0645   -13.6886     5.0530 H       1      m1     0.0206
   1446 H           -9.4339   -10.5500     4.5183 H       1      m1     0.0148
   1447 C           -8.8629   -11.4626     6.1855 C       1      m1     0.0050
   1448 C           -8.7604   -10.0969     5.4730 C       1      m1    -0.0380
   1449 C           -8.4265   -13.2661     3.5115 C       1      m1    -0.0273
   1450 H           -8.6253   -12.0498     3.2891 H       1      m1     0.0172
   1451 C           -7.8273   -13.3882     1.9474 C       1      m1     0.0006
   1452 H           -7.6976   -13.6921     4.1256 H       1      m1     0.0217
   1453 H           -6.2813   -11.1311     3.6564 H       1      m1     0.0185
   1454 H           -5.1659   -13.7285     6.5667 H       1      m1     0.0223
   1455 C           -5.4396   -11.0215     5.5385 C       1      m1    -0.0077
   1456 C           -5.3350   -11.3282     3.0679 C       1      m1    -0.0225
   1457 C           -4.6444   -12.1461     5.1044 C       1      m1    -0.0064
   1458 C           -4.3723   -12.9798     6.3630 C       1      m1    -0.0178
   1459 C           -4.0275   -11.4274     3.7414 C       1      m1     0.0005
   1460 H           -3.1559   -13.6975     4.6821 H       1      m1     0.0213
   1461 C           -2.3835   -11.5087     3.3870 C       1      m1    -0.0700
   1462 C           -2.0726   -10.1821     4.0064 C       1      m1     0.0070
   1463 H           -2.7881   -10.7262     6.5320 H       1      m1     0.0230
   1464 C           -1.9250   -11.5921     6.2181 C       1      m1    -0.0521
   1465 H           -2.1077   -12.5763     3.9275 H       1      m1     0.0257
   1466 C           -0.6315   -10.3200     4.5990 C       1      m1    -0.0418
   1467 C           -0.8911   -11.5830     5.2317 C       1      m1     0.1866
   1468 H           -0.4131   -10.7823     3.5915 H       1      m1     0.0689
   1469 O            0.5612   -12.4800     5.4805 O       1      m1    -0.5332
   1470 H            1.8576   -11.6032     2.1326 H       1      m1     0.0534
   1471 C            1.8997   -10.4804     4.2403 C       1      m1     0.0531
   1472 C            2.3797   -11.5850     3.1962 C       1      m1    -0.0069
   1473 C            2.6660   -13.7105     4.6324 C       1      m1     0.0376
   1474 C            3.0993   -12.5679     3.9668 C       1      m1     0.0214
   1475 H            3.9990   -10.4297     4.6866 H       1      m1     0.0206
   1476 C            4.5590   -12.6227     3.2901 C       1      m1    -0.0286
   1477 H            5.5043   -11.8660     3.5344 H       1      m1     0.0193
   1478 C            7.3154   -13.1532     3.1338 C       1      m1     0.0030
   1479 H            8.1434   -11.3672     2.2750 H       1      m1     0.0172
   1480 C            8.0456   -13.7248     5.2910 C       1      m1     0.0385
   1481 C            8.2786   -12.0805     3.0861 C       1      m1    -0.0227
   1482 C            9.3787   -11.9383     4.0874 C       1      m1     0.0287
   1483 C            9.4621   -13.3701     4.7053 C       1      m1    -0.0336
   1484 C           10.3346   -10.9954     4.4839 C       1      m1     0.0250
   1485 H           11.0940   -11.6542     4.9117 H       1      m1     0.0729
   1486 C           12.8022   -12.7354     2.9695 C       1      m1     0.0139
   1487 H           13.8024   -10.3681     4.3189 H       1      m1     0.0434
   1488 C           13.7991   -12.0666     3.9199 C       1      m1    -0.0470
   1489 C           13.9034   -12.0108     5.3737 C       1      m1     0.2028
   1490 C           14.2996   -13.1791     5.9104 C       1      m1    -0.0460
   1491 C           15.0625   -12.3475     3.4402 C       1      m1    -0.0049
   1492 C          -14.5010    -6.4799     6.2115 C       1      m1    -0.0008
   1493 H          -13.8526    -8.5145     2.0360 H       1      m1     0.0330
   1494 H          -11.1134   -10.2581     4.0478 H       1      m1     0.0124
   1495 C          -10.7883    -7.3287     2.5354 C       1      m1    -0.0032
   1496 C          -10.6626    -8.7896     2.4074 C       1      m1    -0.0252
   1497 C           -9.7883    -5.7580     6.2239 C       1      m1    -0.0096
   1498 H          -10.2861    -6.6261     5.6988 H       1      m1     0.0231
   1499 H           -9.9214    -9.4336     2.1902 H       1      m1     0.0178
   1500 H           -9.3408    -9.6146     6.1649 H       1      m1     0.0242
   1501 H           -7.6824    -8.9383     3.7818 H       1      m1     0.0170
   1502 C           -7.6098    -9.1679     5.6901 C       1      m1     0.0113
   1503 C           -6.8800    -8.8602     4.5346 C       1      m1    -0.0233
   1504 C           -6.3609    -6.3879     4.1084 C       1      m1    -0.0050
   1505 C           -5.9763    -7.7715     4.5628 C       1      m1    -0.0006
   1506 C           -4.8214    -8.1588     5.5474 C       1      m1    -0.0042
   1507 H           -3.7651    -9.1903     2.7453 H       1      m1     0.0167
   1508 C           -3.5895    -8.1952     5.8603 C       1      m1    -0.0090
   1509 C           -2.6296    -9.2056     3.0087 C       1      m1    -0.0042
   1510 H           -3.0349    -6.2607     2.4707 H       1      m1     0.0177
   1511 C           -2.3280    -6.7979     3.2115 C       1      m1    -0.0205
   1512 C           -2.2148    -6.5284     4.6453 C       1      m1    -0.0236
   1513 C           -2.2428    -7.8116     5.5211 C       1      m1     0.0041
   1514 C           -1.7015    -8.1279     3.0777 C       1      m1     0.0235
   1515 C           -0.2232    -7.9663     2.7889 C       1      m1     0.0168
   1516 C            0.9088    -9.5699     4.5134 C       1      m1     0.0140
   1517 C            0.7407    -7.3163     3.8087 C       1      m1    -0.0034
   1518 C            1.0622    -8.2841     5.0921 C       1      m1    -0.0053
   1519 C            1.7316    -6.3642     3.4708 C       1      m1    -0.0056
   1520 H            2.3424    -9.3264     1.4422 H       1      m1     0.0302
   1521 C            3.0355    -9.7954     4.8330 C       1      m1    -0.0226
   1522 C            3.3486    -8.8864     5.8091 C       1      m1    -0.0224
   1523 H            4.4099    -7.9639     3.6603 H       1      m1     0.0166
   1524 H            4.2802    -8.5328     6.1986 H       1      m1     0.0178
   1525 C            4.4689    -7.4624     2.6742 C       1      m1    -0.0113
   1526 C            5.9196    -7.1321     2.5258 C       1      m1     0.0142
   1527 C            6.8339    -5.8705     2.9195 C       1      m1     0.0033
   1528 C            8.0971    -6.1453     2.4613 C       1      m1    -0.0045
   1529 H            9.7549    -9.3881     3.1309 H       1      m1     0.0220
   1530 C           10.1330    -6.5916     3.6884 C       1      m1     0.0056
   1531 C           10.4781    -9.6146     4.0918 C       1      m1     0.0092
   1532 H           10.9782    -8.0921     5.8280 H       1      m1     0.0523
   1533 C           11.3102    -8.8835     4.9936 C       1      m1    -0.0252
   1534 C           11.1522    -7.3700     4.1508 C       1      m1    -0.0066
   1535 H           12.1496    -9.3385     5.2358 H       1      m1     0.0709
   1536 C           12.3948    -7.0662     3.1532 C       1      m1     0.0008
   1537 C           13.6129    -7.1732     3.8728 C       1      m1    -0.0015
   1538 C           14.2724    -9.5057     3.7228 C       1      m1    -0.0234
   1539 C           14.3967    -9.4503     2.3163 C       1      m1    -0.0116
   1540 H           14.9973    -9.7011     6.1421 H       1      m1     0.0375
   1541 C           14.5297    -8.2794     4.5121 C       1      m1    -0.0052
   1542 C           14.7027    -8.7157     5.8419 C       1      m1    -0.0069
   1543 C          -15.0076    -2.5993     2.6256 C       1      m1     0.0065
   1544 H          -14.5461    -1.9331     4.4683 H       1      m1     0.0259
   1545 C          -14.5671    -2.7932     3.9057 C       1      m1    -0.0182
   1546 H          -14.4142    -5.4524     2.8477 H       1      m1     0.0179
   1547 C          -13.5869    -3.8649     4.2671 C       1      m1    -0.0063
   1548 H          -13.3252    -4.7880     3.7423 H       1      m1     0.0155
   1549 C          -13.0817    -3.8790     5.7651 C       1      m1    -0.0029
   1550 C          -12.3121    -2.8466     4.0332 C       1      m1    -0.0686
   1551 C          -12.1668    -1.8926     2.8290 C       1      m1     0.0432
   1552 C          -11.8834    -3.0405     6.2200 C       1      m1    -0.0445
   1553 C          -11.1027    -2.7432     2.3367 C       1      m1    -0.0045
   1554 C          -11.3591    -2.6036     4.8900 C       1      m1     0.2578
   1555 C          -10.3534    -4.7149     3.1761 C       1      m1    -0.0212
   1556 C          -10.4521    -6.0735     2.8767 C       1      m1    -0.0029
   1557 C          -10.3061    -3.3830     3.2984 C       1      m1     0.0416
   1558 C           -8.8467    -2.6830     2.9404 C       1      m1    -0.0060
   1559 C           -8.1357    -3.6711     2.2733 C       1      m1    -0.0072
   1560 C           -7.0889    -4.2045     2.7974 C       1      m1     0.0092
   1561 C           -6.7932    -5.6751     2.9412 C       1      m1    -0.0154
   1562 C           -6.6724    -5.5088     5.3428 C       1      m1    -0.0093
   1563 H           -5.7938    -2.6176     3.9956 H       1      m1     0.0150
   1564 H           -6.4120    -4.2812     4.7639 H       1      m1     0.0187
   1565 C           -5.9392    -3.3386     3.2569 C       1      m1    -0.0376
   1566 H           -5.9969    -2.5237     5.4951 H       1      m1     0.0142
   1567 C           -5.7062    -2.4170     2.1035 C       1      m1     0.0223
   1568 H           -4.6845    -4.5682     2.4025 H       1      m1     0.0229
   1569 C           -2.3110    -2.1876     6.1315 C       1      m1     0.0019
   1570 H           -1.7908    -5.6953     4.9410 H       1      m1     0.0179
   1571 C            0.9940    -2.1650     2.5434 C       1      m1     0.0101
   1572 C            2.0416    -2.2156     3.4634 C       1      m1    -0.0253
   1573 H            2.9939    -2.7465     3.8894 H       1      m1     0.0183
   1574 C            2.4390    -5.3635     2.9523 C       1      m1     0.0254
   1575 C            3.7777    -5.2228     3.7338 C       1      m1    -0.0156
   1576 C            4.1582    -4.4816     5.0442 C       1      m1    -0.0119
   1577 H            4.6518    -4.4004     3.2618 H       1      m1     0.0475
   1578 C            5.1067    -3.3699     4.9690 C       1      m1    -0.0103
   1579 C            5.9665    -2.7680     4.4069 C       1      m1    -0.0058
   1580 H            6.7270    -5.4170     4.0709 H       1      m1     0.0194
   1581 C            9.3870    -5.7444     3.3022 C       1      m1    -0.0006
   1582 C            9.8633    -4.2955     3.4715 C       1      m1    -0.0230
   1583 H            9.3029    -3.5968     2.8156 H       1      m1     0.0175
   1584 C           10.1866    -3.7322     4.7453 C       1      m1    -0.0031
   1585 C           10.6021    -3.1004     5.8400 C       1      m1    -0.0031
   1586 H           12.4450    -3.9988     4.1117 H       1      m1     0.0208
   1587 C           12.8026    -2.1898     6.2061 C       1      m1    -0.0055
   1588 C           13.2235    -4.7646     3.8526 C       1      m1    -0.0221
   1589 C           13.9462    -5.9364     4.5013 C       1      m1    -0.0021
   1590 C           14.0553    -4.3443     2.9180 C       1      m1     0.0010
   1591 C           14.7868    -5.6202     5.6584 C       1      m1    -0.0055
   1592 C           14.8712    -4.3015     6.2786 C       1      m1    -0.0051
   1593 C          -15.0820     1.9108     4.3455 C       1      m1    -0.0048
   1594 C          -14.6243     1.1805     3.0860 C       1      m1     0.0027
   1595 H           15.1077    -0.0208     5.1182 H       1      m1     0.0228
   1596 C          -12.5552    -0.5807     2.4922 C       1      m1     0.0032
   1597 O          -10.3972    -1.4615     4.7142 O       1      m1    -0.5307
   1598 C          -10.1504    -0.2425     5.6761 C       1      m1     0.2413
   1599 H          -10.0193     0.2009     2.9007 H       1      m1     0.0580
   1600 C           -9.3466     0.9638     5.1725 C       1      m1    -0.0394
   1601 H           -8.2116    -2.1246     3.6781 H       1      m1     0.0461
   1602 C           -8.1663     0.2765     4.6759 C       1      m1     0.0251
   1603 H           -7.6477    -0.5831     2.3773 H       1      m1     0.0224
   1604 C           -7.2118    -0.4453     4.2321 C       1      m1    -0.0226
   1605 C           -6.7917    -0.2078     2.8137 C       1      m1    -0.0189
   1606 H           -6.7191    -1.3927     4.6675 H       1      m1     0.0154
   1607 C           -6.4475     1.3739     2.5694 C       1      m1     0.0018
   1608 H           -6.1732     1.7658     5.5928 H       1      m1     0.0191
   1609 H           -4.8694    -0.4929     4.5626 H       1      m1     0.0192
   1610 C           -3.8262    -0.7202     4.8105 C       1      m1    -0.0207
   1611 C           -3.7154    -1.8369     5.7075 C       1      m1    -0.0066
   1612 C           -3.3002     1.5894     3.7819 C       1      m1     0.0002
   1613 C           -2.7632     0.3607     4.3361 C       1      m1     0.0008
   1614 C           -2.1639     2.0057     2.8902 C       1      m1    -0.0041
   1615 C           -1.4514    -0.4648     4.4127 C       1      m1     0.0012
   1616 C           -1.2661    -1.4979     5.4007 C       1      m1    -0.0235
   1617 C           -1.0452     1.0420     2.7161 C       1      m1     0.0435
   1618 H           -0.2847    -1.9184     5.1058 H       1      m1     0.0208
   1619 C           -0.2454     0.1044     3.5547 C       1      m1    -0.0152
   1620 C           -0.0101    -1.1239     2.4376 C       1      m1    -0.0595
   1621 H            0.6283     0.5703     4.0050 H       1      m1     0.0185
   1622 H            1.8379     0.7357     5.2490 H       1      m1     0.0177
   1623 C            2.2660    -1.1649     4.2438 C       1      m1     0.0039
   1624 C            2.4231    -0.1686     4.9518 C       1      m1    -0.0223
   1625 C            3.2840     0.1665     6.2290 C       1      m1    -0.0027
   1626 C            3.7976     0.6458     2.3163 C       1      m1     0.0004
   1627 C            4.3573    -0.5115     2.7152 C       1      m1    -0.0232
   1628 H            4.3823    -1.1336     3.5699 H       1      m1     0.0237
   1629 C            4.7193     0.4353     5.9167 C       1      m1    -0.0042
   1630 C            6.4019    -1.9591     3.5953 C       1      m1    -0.0066
   1631 C            6.8962    -1.2988     2.4457 C       1      m1    -0.0023
   1632 H            7.8911    -0.9005     4.3567 H       1      m1     0.0182
   1633 C            7.9849    -0.2769     2.5641 C       1      m1    -0.0058
   1634 C            8.1939     0.1193     3.8481 C       1      m1    -0.0132
   1635 H            9.0122     1.4799     6.3483 H       1      m1     0.0207
   1636 C            9.1866     1.1570     4.1952 C       1      m1    -0.0184
   1637 H            9.7859     1.5230     4.9168 H       1      m1     0.0216
   1638 H           11.0301    -1.0454     2.6029 H       1      m1     0.0206
   1639 C           11.1923    -0.4043     3.4224 C       1      m1    -0.0403
   1640 C           11.4808    -1.8606     5.7074 C       1      m1    -0.0047
   1641 C           11.2652    -0.9818     4.6023 C       1      m1     0.0028
   1642 H           11.5496     0.6969     3.2687 H       1      m1     0.0213
   1643 C           14.6708    -1.3135     2.3327 C       1      m1    -0.0227
   1644 C           14.6512    -0.1988     6.2282 C       1      m1    -0.0177
   1645 C           15.0525    -0.1769     3.1277 C       1      m1    -0.0074
   1646 C          -14.1050     2.6765     5.1581 C       1      m1     0.0005
   1647 C          -12.7975     3.3733     4.6470 C       1      m1     0.0232
   1648 C          -12.6238     3.4562     3.3352 C       1      m1    -0.0341
   1649 C          -12.3947     4.1868     5.8254 C       1      m1     0.0007
   1650 C          -10.9356     4.1638     6.1166 C       1      m1    -0.0008
   1651 C          -10.1490     5.2880     6.0020 C       1      m1    -0.0035
   1652 C           -9.2131     2.4699     5.4814 C       1      m1    -0.0090
   1653 H           -8.7430     3.2402     4.7891 H       1      m1     0.0226
   1654 C           -8.1781     5.4244     3.0388 C       1      m1     0.0026
   1655 C           -7.5895     1.8697     2.1076 C       1      m1    -0.0054
   1656 C           -7.4960     3.2792     2.8255 C       1      m1     0.0007
   1657 C           -6.2731     3.4633     3.5100 C       1      m1    -0.0053
   1658 C           -6.3257     2.5062     6.4269 C       1      m1    -0.0150
   1659 C           -6.3380     3.7890     6.1227 C       1      m1     0.0016
   1660 C           -5.8051     4.2852     4.6794 C       1      m1    -0.0019
   1661 C           -5.8121     5.8779     4.4878 C       1      m1     0.0011
   1662 C           -5.5945     2.2627     3.4563 C       1      m1    -0.0032
   1663 C           -4.3349     2.4512     4.0152 C       1      m1    -0.0050
   1664 C           -4.4272     3.7982     4.4887 C       1      m1    -0.0056
   1665 H           -3.8734     4.5210     2.8629 H       1      m1     0.0255
   1666 C           -3.3551     4.6338     5.0912 C       1      m1    -0.0020
   1667 C           -2.3636     4.9600     4.4205 C       1      m1    -0.0045
   1668 C           -1.1526     5.3615     3.7500 C       1      m1    -0.0042
   1669 H            0.2679     2.7967     4.0469 H       1      m1     0.0188
   1670 C            0.1836     5.0026     4.3285 C       1      m1    -0.0046
   1671 C            0.8695     3.7192     3.9862 C       1      m1    -0.0166
   1672 C            0.9396     5.6926     5.3146 C       1      m1     0.0024
   1673 H            1.1173     2.3675     5.9796 H       1      m1     0.0173
   1674 C            1.6470     3.8265     2.7075 C       1      m1     0.0011
   1675 C            2.0357     4.8925     5.8855 C       1      m1    -0.0018
   1676 C            2.9672     3.0886     2.8116 C       1      m1    -0.0008
   1677 C            3.1549     5.2040     5.0617 C       1      m1     0.0000
   1678 C            3.9207     3.6876     3.7037 C       1      m1     0.0031
   1679 C            4.1239     4.1244     5.1650 C       1      m1    -0.0009
   1680 C            4.3425     4.6616     2.6835 C       1      m1    -0.0226
   1681 H            4.3615     5.7647     2.4680 H       1      m1     0.0140
   1682 H            6.6187     3.8280     1.9467 H       1      m1     0.0251
   1683 H            6.2315     1.5451     2.6234 H       1      m1     0.0229
   1684 C            7.1300     4.6930     2.1853 C       1      m1    -0.0211
   1685 H            6.8934     4.6066     4.1916 H       1      m1     0.0210
   1686 C            7.6958     4.7647     3.5319 C       1      m1    -0.0163
   1687 H            9.0801     4.1236     5.8160 H       1      m1     0.0278
   1688 C            9.4467     2.3311     3.3506 C       1      m1    -0.0005
   1689 C            9.4626     3.2263     6.2575 C       1      m1    -0.0396
   1690 C           10.3728     3.4328     3.6441 C       1      m1    -0.0029
   1691 C           10.5492     3.3973     5.1805 C       1      m1    -0.0041
   1692 C           10.9656     4.3615     2.7687 C       1      m1    -0.0035
   1693 C           11.4492     4.5908     5.2376 C       1      m1     0.0070
   1694 C           11.4894     5.2337     3.9255 C       1      m1    -0.0194
   1695 H           12.5130     5.6932     3.7125 H       1      m1     0.0184
   1696 C           12.2635     4.9434     6.2647 C       1      m1    -0.0192
   1697 C          -15.1543     8.6395     3.0329 C       1      m1    -0.0014
   1698 C          -14.2493     7.0339     4.7503 C       1      m1    -0.0120
   1699 C          -14.0507     7.9603     3.6024 C       1      m1     0.0209
   1700 C          -13.4408     6.9679     5.8234 C       1      m1     0.0088
   1701 C          -12.5584     8.4270     3.4141 C       1      m1     0.0091
   1702 C          -12.1373     7.9292     5.6592 C       1      m1    -0.0002
   1703 C          -11.8683     8.2813     1.9567 C       1      m1     0.0135
   1704 C          -11.6881     8.7493     4.4653 C       1      m1     0.0031
   1705 C          -10.4822     9.6958     4.4013 C       1      m1    -0.0221
   1706 C           -9.6738     7.9907     6.2840 C       1      m1    -0.0193
   1707 C           -9.5297     9.0907     5.1876 C       1      m1     0.0014
   1708 C           -9.3599     6.3935     5.7777 C       1      m1     0.0027
   1709 H           -8.8337     7.9718     2.6718 H       1      m1     0.0223
   1710 C           -8.0324     6.4639     5.2731 C       1      m1    -0.0206
   1711 C           -8.1798     5.9672     4.0198 C       1      m1     0.0025
   1712 C           -7.9821     9.7423     4.9782 C       1      m1    -0.0048
   1713 H           -7.3505     7.4659     5.3325 H       1      m1     0.0212
   1714 C           -7.0466     9.5917     5.9023 C       1      m1    -0.0083
   1715 C           -6.8734     7.0211     2.5138 C       1      m1     0.0001
   1716 C           -5.7445     6.4714     3.1458 C       1      m1     0.0012
   1717 C           -5.4993     6.7564     5.5612 C       1      m1    -0.0034
   1718 C           -5.1212     8.1674     5.1748 C       1      m1     0.0004
   1719 C           -4.7662     7.5325     2.7362 C       1      m1    -0.0180
   1720 C           -4.5211     9.1465     6.0696 C       1      m1    -0.0002
   1721 C           -4.2296     8.2317     3.8435 C       1      m1     0.0091
   1722 C           -2.9552     8.8658     3.5464 C       1      m1    -0.0009
   1723 C           -2.1004     9.4621     4.1385 C       1      m1    -0.0169
   1724 C           -1.2724     5.9548     2.3041 C       1      m1    -0.0181
   1725 H           -1.1220     9.3663     3.6560 H       1      m1     0.0183
   1726 H           -0.6304     7.1715     5.4932 H       1      m1     0.0235
   1727 H           -0.4234     6.5795     2.5825 H       1      m1     0.0181
   1728 C            0.3152     6.8736     5.8935 C       1      m1    -0.0192
   1729 H            3.3893     7.9903     3.4015 H       1      m1     0.0161
   1730 C            3.2915     6.7942     5.3823 C       1      m1     0.0064
   1731 C            4.0887     7.6099     4.3595 C       1      m1    -0.0330
   1732 C            4.7995     8.7253     5.2111 C       1      m1     0.0052
   1733 H            4.9675     7.2544     3.8251 H       1      m1     0.0193
   1734 C            8.6420     6.2896     2.3338 C       1      m1    -0.0027
   1735 C            8.5981     5.9670     3.6354 C       1      m1    -0.0041
   1736 H            9.3710     8.7429     3.0440 H       1      m1     0.0239
   1737 C           10.1087     9.3373     2.8749 C       1      m1    -0.0275
   1738 C           10.1710     6.1266     4.0150 C       1      m1    -0.0031
   1739 C           10.4735     7.2453     4.5325 C       1      m1    -0.0087
   1740 C           10.7800     8.4869     5.3692 C       1      m1    -0.0058
   1741 C           10.7318     9.5702     4.1239 C       1      m1    -0.0057
   1742 H           13.1462     5.7061     6.1899 H       1      m1     0.0164
   1743 H          -15.1629     6.3852     4.2788 H       1      m1     0.0290
   1744 C          -15.0648    13.4645     5.7879 C       1      m1     0.0125
   1745 C          -14.3782    13.2433     4.8401 C       1      m1    -0.0074
   1746 C          -13.3266    12.2458     5.2102 C       1      m1     0.0026
   1747 C          -13.2525    13.7080     2.7851 C       1      m1    -0.0173
   1748 C          -11.9882    13.2268     3.3863 C       1      m1    -0.0054
   1749 C          -11.9321    12.4951     4.6998 C       1      m1    -0.0075
   1750 H          -11.5387    10.6197     2.6770 H       1      m1     0.0195
   1751 C          -11.0627    12.3971     5.9476 C       1      m1    -0.0089
   1752 C          -10.7324    13.6892     3.0307 C       1      m1     0.0012
   1753 H          -10.2072    10.6524     4.0330 H       1      m1     0.0191
   1754 H           -8.9040    13.2300     5.5924 H       1      m1     0.0202
   1755 H           -8.3998    10.8497     2.9802 H       1      m1     0.0154
   1756 C           -7.6668    10.6458     3.8190 C       1      m1    -0.0172
   1757 C           -6.5629    11.3322     3.7357 C       1      m1    -0.0009
   1758 C           -5.4885    12.1021     3.8503 C       1      m1    -0.0018
   1759 H           -5.0599   -13.8553     2.7166 H       1      m1     0.0193
   1760 C           -4.6374    13.0821     3.3166 C       1      m1    -0.0275
   1761 C           -3.2055    12.7380     3.3660 C       1      m1    -0.0009
   1762 H           -2.6795    11.3047     5.3697 H       1      m1     0.0222
   1763 C           -2.2827    13.3705     4.3294 C       1      m1    -0.0197
   1764 C           -2.3982    12.3168     2.3394 C       1      m1    -0.0064
   1765 C           -2.3233    10.2813     5.5826 C       1      m1    -0.0122
   1766 C           -1.1914    13.1553     5.2651 C       1      m1     0.0174
   1767 C           -1.0209    12.0015     2.9304 C       1      m1    -0.0182
   1768 C           -0.9247     9.9163     6.2881 C       1      m1    -0.0139
   1769 C           -0.3716    12.3404     4.3340 C       1      m1    -0.0003
   1770 H           -0.2310    12.2126     2.2471 H       1      m1     0.0233
   1771 C            0.9189    12.3812     4.0921 C       1      m1     0.0091
   1772 C            2.1145    12.7873     3.9159 C       1      m1    -0.0027
   1773 C            2.7106    13.6935     6.0057 C       1      m1     0.0321
   1774 C            2.9219    12.2596     2.6483 C       1      m1    -0.0091
   1775 C            3.2589    10.8599     2.3680 C       1      m1    -0.0005
   1776 C            4.6566    10.7853     2.3432 C       1      m1    -0.0037
   1777 C            5.2030    10.5438     3.6541 C       1      m1    -0.0077
   1778 C            5.4876     9.9227     4.9513 C       1      m1    -0.0249
   1779 H            5.7767    10.5731     5.7480 H       1      m1     0.0173
   1780 C            6.9310    13.7633     4.3107 C       1      m1    -0.0166
   1781 H            7.2811    12.1385     6.3678 H       1      m1     0.0154
   1782 H            8.9254    10.0524     5.8176 H       1      m1     0.0203
   1783 C           10.5048    13.8413     5.2480 C       1      m1     0.1247
   1784 C           11.2488    12.5492     5.3141 C       1      m1     0.1811
   1785 C           11.6689    10.6055     4.2157 C       1      m1     0.0036
   1786 C           12.2345    11.7679     4.5429 C       1      m1    -0.0576
   1787 C           13.2222    13.8747     2.3076 C       1      m1    -0.0303
   1788 H           12.9492    12.3274     3.9661 H       1      m1     0.0266
   1789 H           13.8156    13.1657     2.7366 H       1      m1     0.0200
   1790 C           15.0951    10.0847     2.5774 C       1      m1     0.0002
   1791 H          -14.7012   -11.3106    10.0560 H       1      m1     0.0197
   1792 C          -14.6976   -10.5573     8.1295 C       1      m1     0.0023
   1793 H          -14.1201   -13.3288     9.9844 H       1      m1     0.0131
   1794 H          -13.3607   -12.8454     8.7460 H       1      m1     0.0131
   1795 C          -13.0152   -13.5688    10.3474 C       1      m1    -0.0225
   1796 H          -12.9348   -10.4535     7.1185 H       1      m1     0.0095
   1797 C          -12.4871   -10.3924     9.2152 C       1      m1    -0.0229
   1798 C          -12.1676   -12.9504     9.1833 C       1      m1    -0.0098
   1799 C          -11.4794   -11.5208     9.4454 C       1      m1     0.0004
   1800 C          -11.5409   -13.4898     7.9051 C       1      m1    -0.0060
   1801 H          -10.9094   -10.5777     6.7114 H       1      m1     0.0192
   1802 C          -10.7868   -12.5490     7.0718 C       1      m1     0.0001
   1803 C          -10.6896   -11.0785    10.5106 C       1      m1    -0.0076
   1804 C          -10.3177   -11.5266     6.4805 C       1      m1    -0.0275
   1805 C           -9.6628   -12.2402    10.4350 C       1      m1     0.0022
   1806 H           -9.3401   -10.2307     8.0172 H       1      m1     0.0214
   1807 C           -7.7987   -13.4052     7.1192 C       1      m1     0.0025
   1808 C           -7.7152   -12.0321     6.6657 C       1      m1    -0.0043
   1809 C           -7.0236   -13.5519     8.3657 C       1      m1    -0.0010
   1810 H           -6.7720   -10.4721     9.2451 H       1      m1     0.0197
   1811 C           -6.3531   -11.2656     6.7316 C       1      m1    -0.0022
   1812 C           -5.7563   -13.0037     8.5999 C       1      m1    -0.0025
   1813 C           -5.5305   -11.5850     7.8659 C       1      m1    -0.0020
   1814 C           -5.0573   -13.4496     9.8682 C       1      m1    -0.0037
   1815 C           -4.1715   -10.9118     8.3423 C       1      m1    -0.0166
   1816 C           -4.1542   -12.3243     9.9322 C       1      m1    -0.0042
   1817 H           -3.5757   -10.0704     7.8041 H       1      m1     0.0173
   1818 C           -3.2055   -13.2658     7.2466 C       1      m1     0.0024
   1819 C           -3.4335   -11.1397     9.4323 C       1      m1    -0.0024
   1820 C           -2.1564   -10.4714    10.4133 C       1      m1    -0.0023
   1821 C           -1.8084   -12.6619     7.2869 C       1      m1     0.0084
   1822 H           -1.4351   -12.7751     8.3461 H       1      m1     0.0199
   1823 C           -0.9521   -11.0325    10.7494 C       1      m1    -0.0017
   1824 H           -0.1932   -10.1366     8.0791 H       1      m1     0.0303
   1825 C            0.3970   -13.5503     6.2771 C       1      m1     0.3115
   1826 C            0.4204   -12.5038    10.1087 C       1      m1    -0.0025
   1827 C            1.2781   -13.3668     9.8666 C       1      m1     0.0024
   1828 H            1.9035   -10.3925     7.3863 H       1      m1     0.0390
   1829 H            3.7403   -10.7235     8.7769 H       1      m1     0.0218
   1830 C            4.6740   -10.3240     9.1139 C       1      m1    -0.0389
   1831 C            5.3418   -13.5986    10.3020 C       1      m1    -0.0183
   1832 C            5.7099   -12.6194     9.3429 C       1      m1    -0.0166
   1833 H            5.7914   -12.7604     8.2257 H       1      m1     0.0186
   1834 C            5.5254   -11.3247     9.8454 C       1      m1     0.0003
   1835 C            7.5543   -13.2557     6.5344 C       1      m1    -0.0433
   1836 C            7.9263    13.5638     8.9391 C       1      m1     0.0102
   1837 C            8.0593   -12.1390     7.3710 C       1      m1     0.2474
   1838 C            8.3351   -12.6470     8.6649 C       1      m1    -0.0406
   1839 O            8.8627   -11.0221     6.8757 O       1      m1    -0.4814
   1840 C            9.3179   -11.8677     9.2532 C       1      m1    -0.0296
   1841 C            9.7825   -11.1909     8.0394 C       1      m1     0.2426
   1842 C           10.2518   -12.3689    10.2408 C       1      m1    -0.0083
   1843 C           11.1407   -10.7046     8.1478 C       1      m1     0.0279
   1844 C           11.7203   -12.1745    10.2901 C       1      m1    -0.0006
   1845 C           11.9478   -11.3801     9.1459 C       1      m1     0.0102
   1846 O           12.9437   -11.2461     6.3136 O       1      m1    -0.4807
   1847 C           13.3629   -12.2595     7.5463 C       1      m1     0.2041
   1848 C           13.8042   -13.5369     7.2155 C       1      m1     0.0090
   1849 C           13.7398   -12.1937     8.8816 C       1      m1    -0.0447
   1850 C           13.9990   -13.6340     9.3173 C       1      m1    -0.0136
   1851 H           14.4505    13.6287    10.0989 H       1      m1     0.0195
   1852 C           14.9803   -11.1983     9.1851 C       1      m1    -0.0055
   1853 C          -14.7802    -7.8545     6.6580 C       1      m1    -0.0061
   1854 C          -13.7812    -8.2714     7.6100 C       1      m1    -0.0382
   1855 C          -13.3041    -9.8543     8.0133 C       1      m1     0.0101
   1856 C          -13.3113    -6.2015     6.9750 C       1      m1    -0.0566
   1857 H          -13.4082    -5.9102     9.0917 H       1      m1     0.0771
   1858 C          -12.8181    -7.3610     7.5674 C       1      m1     0.2432
   1859 H          -12.1552    -8.6221    10.2967 H       1      m1     0.0648
   1860 C          -11.6301    -9.2612     9.5123 C       1      m1     0.0814
   1861 O          -11.8608    -7.3644     8.6931 O       1      m1    -0.4604
   1862 C          -10.2682    -9.5967    10.1824 C       1      m1    -0.0107
   1863 C           -9.5151    -9.4620     8.7427 C       1      m1    -0.0158
   1864 C           -9.6153    -6.8816    10.6582 C       1      m1     0.0257
   1865 C           -9.2022    -8.3051     8.6936 C       1      m1     0.0285
   1866 C           -9.0451    -6.9287     9.0810 C       1      m1     0.0278
   1867 H           -7.2409    -9.1893     8.0056 H       1      m1     0.0202
   1868 C           -6.9990    -8.9088     6.9142 C       1      m1    -0.0181
   1869 C           -6.6237    -9.7015    10.2293 C       1      m1    -0.0160
   1870 C           -6.0238    -8.4494    10.3348 C       1      m1     0.0001
   1871 C           -5.7421    -8.4073     6.9126 C       1      m1     0.0066
   1872 C           -5.4091    -7.8539     9.3272 C       1      m1    -0.0010
   1873 C           -4.9486    -7.9023     8.0458 C       1      m1    -0.0239
   1874 H           -4.1111    -7.3146     7.9447 H       1      m1     0.0236
   1875 C           -2.3870    -6.5126     7.5167 C       1      m1    -0.0253
   1876 C           -2.0839    -6.3491     8.8448 C       1      m1    -0.0004
   1877 C           -1.7475    -7.5127     6.7944 C       1      m1    -0.0007
   1878 C           -0.8181    -8.0981     7.8958 C       1      m1     0.0034
   1879 C           -0.7561    -7.0389     8.8973 C       1      m1     0.0016
   1880 C           -0.1566    -6.9832    10.2231 C       1      m1     0.0008
   1881 C           -0.0702    -9.1868     8.3203 C       1      m1    -0.0236
   1882 C            1.3513    -8.6865     8.7542 C       1      m1     0.0063
   1883 C            1.9275    -8.2617     9.8601 C       1      m1    -0.0044
   1884 C            1.7794    -8.2748     6.3002 C       1      m1     0.0069
   1885 C            2.1088    -9.2328     7.5475 C       1      m1    -0.0352
   1886 C            2.5947    -6.8192     6.4063 C       1      m1    -0.0098
   1887 H            3.2647    -8.9179     7.7454 H       1      m1     0.0191
   1888 C            3.5110    -6.1012     6.4503 C       1      m1    -0.0039
   1889 C            4.4955    -9.1603    10.1788 C       1      m1    -0.0130
   1890 H            5.4524    -9.8803     8.4090 H       1      m1     0.0313
   1891 H            5.2875    -7.1653     9.5475 H       1      m1     0.0230
   1892 C            6.2558    -6.5986     9.2866 C       1      m1    -0.0283
   1893 C            6.7959    -6.3892     8.0459 C       1      m1     0.0342
   1894 C            7.2440    -6.4216    10.3637 C       1      m1    -0.0162
   1895 H            8.1969    -6.7164     9.9455 H       1      m1     0.0884
   1896 O            9.7628    -6.4102     8.6532 O       1      m1    -0.4725
   1897 C           11.2662    -5.9603     8.9326 C       1      m1     0.2086
   1898 C           11.5784    -9.3861     8.5894 C       1      m1     0.0294
   1899 C           11.8727    -8.3818     9.1450 C       1      m1     0.0387
   1900 C           11.8964    -7.0783     9.5168 C       1      m1    -0.0232
   1901 H           12.9122    -6.5914     9.1935 H       1      m1     0.0277
   1902 C          -14.2928    -3.4729     6.6541 C       1      m1     0.0019
   1903 C          -13.8984    -2.1804     7.3226 C       1      m1    -0.0034
   1904 C          -13.3010    -5.2934    10.0933 C       1      m1    -0.0312
   1905 C          -12.5278    -4.2081    10.1056 C       1      m1     0.0142
   1906 C          -12.4338    -5.1403     6.4379 C       1      m1     0.0144
   1907 C          -11.8391    -2.9902    10.1846 C       1      m1    -0.0049
   1908 C          -10.9300    -5.0655     6.6647 C       1      m1     0.0153
   1909 C          -10.9667    -3.5981     7.2919 C       1      m1     0.0172
   1910 C          -10.3788    -2.7315    10.4156 C       1      m1     0.0041
   1911 C          -10.1779    -2.8069     8.1777 C       1      m1     0.0091
   1912 C           -9.4486    -2.2640     9.1774 C       1      m1    -0.0210
   1913 C           -8.4318    -5.7471     6.9486 C       1      m1     0.0108
   1914 C           -8.4982    -5.6823     8.5131 C       1      m1    -0.0177
   1915 H           -8.4192    -1.8594     9.2249 H       1      m1     0.0197
   1916 H           -8.1219    -4.7489     8.9312 H       1      m1     0.0221
   1917 C           -7.4723    -4.8582     6.4221 C       1      m1    -0.0004
   1918 C           -6.7114    -3.7837     7.2267 C       1      m1     0.0011
   1919 H           -6.1151    -3.0650    10.5713 H       1      m1     0.0237
   1920 C           -5.6890    -3.0855     6.3929 C       1      m1    -0.0210
   1921 C           -5.6908    -4.4667     8.1075 C       1      m1    -0.0031
   1922 C           -4.4985    -2.7423     6.6555 C       1      m1     0.0031
   1923 C           -4.4555    -4.5095     8.3782 C       1      m1    -0.0001
   1924 C           -3.7311    -4.8132     9.7416 C       1      m1    -0.0229
   1925 C           -3.6641    -3.4678     7.5326 C       1      m1    -0.0041
   1926 H           -3.0779    -5.8014     7.2197 H       1      m1     0.0219
   1927 C           -2.5360    -5.4832    10.0012 C       1      m1    -0.0026
   1928 C           -2.2865    -3.2963     7.0822 C       1      m1    -0.0029
   1929 H           -1.7884    -3.9913     8.6189 H       1      m1     0.0262
   1930 C           -1.0836    -3.4723     7.8667 C       1      m1    -0.0279
   1931 C           -0.4700    -2.1904     8.3914 C       1      m1    -0.0136
   1932 H           -0.2558    -4.2153     7.7451 H       1      m1     0.0268
   1933 C            0.3584    -2.3679     9.4008 C       1      m1     0.0010
   1934 C            1.2213    -2.5490    10.4484 C       1      m1    -0.0007
   1935 C            3.8929    -2.7764     7.9346 C       1      m1     0.0112
   1936 C            4.2570    -3.9153     7.3099 C       1      m1    -0.0008
   1937 H            4.4270    -5.7989     9.8750 H       1      m1    -0.0147
   1938 C            4.5171    -4.9887     6.4543 C       1      m1    -0.0026
   1939 H            7.6668    -5.1012     6.1938 H       1      m1     0.0134
   1940 C            7.7237    -5.9590     6.9934 C       1      m1    -0.0507
   1941 C            8.9642    -5.5748     7.4398 C       1      m1     0.2089
   1942 C            9.4738    -4.5213     7.2366 C       1      m1    -0.0533
   1943 H            9.5384    -2.5247     7.6598 H       1      m1     0.0141
   1944 C           10.1229    -3.3429     7.2200 C       1      m1     0.0026
   1945 C           11.6541    -3.4664     7.8105 C       1      m1    -0.0027
   1946 H           11.8063    -2.8862     8.6636 H       1      m1     0.0167
   1947 C           12.0924    -4.9232     8.4427 C       1      m1    -0.0455
   1948 C           12.7468    -3.5262     6.7309 C       1      m1     0.0004
   1949 C           13.5138    -5.0172     8.3632 C       1      m1    -0.0089
   1950 C           13.9543    -3.8798     7.4922 C       1      m1    -0.0019
   1951 H           14.2954    -5.6977     8.5183 H       1      m1     0.0357
   1952 H           13.6863    -2.4816     9.9036 H       1      m1     0.0168
   1953 C           14.7540    -2.5436    10.2642 C       1      m1    -0.0129
   1954 C          -14.9920     0.1077     8.6305 C       1      m1    -0.0188
   1955 C          -14.5395    -1.2422     8.3148 C       1      m1    -0.0015
   1956 C          -14.5103    -2.0022     9.6443 C       1      m1    -0.0027
   1957 C          -13.7394     1.9908     9.5408 C       1      m1    -0.0053
   1958 C          -13.5902     0.9520     8.8384 C       1      m1     0.0033
   1959 C          -13.0340    -2.0372    10.0363 C       1      m1     0.0004
   1960 C          -12.5702    -1.6701     7.0609 C       1      m1     0.0131
   1961 C          -12.3007     0.1430     8.8515 C       1      m1    -0.0024
   1962 C          -11.8555    -0.5877     7.6086 C       1      m1     0.0164
   1963 C          -11.5273     0.6196     9.9332 C       1      m1     0.0019
   1964 C          -10.8494     0.2483     6.6738 C       1      m1    -0.0629
   1965 C          -10.7311     1.6829     7.1282 C       1      m1     0.0160
   1966 C          -10.3426     1.3198     9.5465 C       1      m1     0.0045
   1967 C           -9.8609     1.7152     8.2205 C       1      m1    -0.0205
   1968 H           -6.8622     0.9578     7.9696 H       1      m1     0.0177
   1969 H           -5.5727    -0.2192     7.4973 H       1      m1     0.0166
   1970 C           -5.7118    -0.8765     9.6352 C       1      m1    -0.0001
   1971 C           -5.1420    -0.8393     8.3744 C       1      m1    -0.0191
   1972 C           -3.9180    -0.3122     8.9298 C       1      m1     0.0023
   1973 H           -3.5547     1.3186     7.7917 H       1      m1     0.0166
   1974 C           -3.3145    -0.9595    10.0288 C       1      m1     0.0009
   1975 C           -2.8243     0.2731     7.8501 C       1      m1    -0.0284
   1976 H           -2.9544    -0.0865     6.7655 H       1      m1     0.0234
   1977 C           -1.8293    -1.1054     9.9640 C       1      m1    -0.0165
   1978 C           -1.4595     0.6257     8.2976 C       1      m1    -0.0113
   1979 H           -1.5540    -1.8227    10.6560 H       1      m1     0.0178
   1980 C           -1.1067    -0.0602     9.4410 C       1      m1    -0.0142
   1981 H           -1.0834     1.7646     7.7519 H       1      m1     0.0134
   1982 H           -0.4260    -1.3162     7.8422 H       1      m1     0.0228
   1983 H           -0.2203     0.0632    10.0485 H       1      m1     0.0172
   1984 C            1.3011     2.1105     6.9751 C       1      m1    -0.0166
   1985 C            1.9507     1.3660     9.6192 C       1      m1     0.0017
   1986 H            2.2178    -2.2313    10.4818 H       1      m1     0.0569
   1987 C            2.4579     1.1515     7.1539 C       1      m1    -0.0022
   1988 C            2.4913     0.6713     8.4507 C       1      m1    -0.0008
   1989 C            3.5951    -0.2212     9.0172 C       1      m1    -0.0005
   1990 C            3.6563    -1.5425     8.5412 C       1      m1     0.0042
   1991 C            4.9247     0.1530     9.5146 C       1      m1    -0.0039
   1992 C            5.4959    -0.8763    10.3457 C       1      m1     0.0026
   1993 H            6.6512    -1.6749     7.0936 H       1      m1     0.0159
   1994 C            6.1060     0.6827     6.3830 C       1      m1     0.0013
   1995 C            6.7609    -0.3884     7.1629 C       1      m1    -0.0185
   1996 C            7.8152    -1.5663    10.1472 C       1      m1    -0.0042
   1997 C            7.7003    -0.7996     9.2740 C       1      m1    -0.0119
   1998 C            7.6412    -0.0389     8.1769 C       1      m1     0.0020
   1999 H            8.3835     1.1768    10.4016 H       1      m1     0.0169
   2000 C            8.5328     1.2993     8.0969 C       1      m1    -0.0392
   2001 H            9.7347     0.9066     8.1718 H       1      m1     0.0158
   2002 H           11.7479     1.1258     8.0504 H       1      m1     0.0178
   2003 H           10.9072    -1.7965    10.3302 H       1      m1     0.0155
   2004 C           12.0068     1.6932     8.9712 C       1      m1    -0.0196
   2005 C           13.8811    -1.4050     6.3262 C       1      m1    -0.0033
   2006 H           14.2961     0.1467     9.2918 H       1      m1     0.0160
   2007 C           15.1068     0.8389     7.3007 C       1      m1     0.0042
   2008 C          -14.4485     3.1841     6.4029 C       1      m1    -0.0008
   2009 C          -14.4035     4.8359     8.8846 C       1      m1    -0.0023
   2010 C          -13.8965     3.0491    10.2931 C       1      m1     0.0049
   2011 C          -13.3923     4.1448     6.8260 C       1      m1    -0.0011
   2012 C          -13.5228     5.2859     7.8032 C       1      m1    -0.0124
   2013 C          -13.2650     4.4538    10.0242 C       1      m1    -0.0125
   2014 H          -12.3195     5.4702     7.8143 H       1      m1     0.0191
   2015 C          -11.8307     4.7149    10.4887 C       1      m1    -0.0174
   2016 H          -11.4983     5.6414     9.9828 H       1      m1     0.0224
   2017 C          -10.3182     2.7927     6.2894 C       1      m1    -0.0038
   2018 H           -8.8754     2.3209     8.1513 H       1      m1     0.0225
   2019 C           -9.3967     5.1201     9.8027 C       1      m1    -0.0244
   2020 H           -8.8413     5.1344     9.0006 H       1      m1     0.0215
   2021 C           -8.2467     2.5414     9.9581 C       1      m1    -0.0078
   2022 C           -7.2206     3.4278     9.6408 C       1      m1    -0.0284
   2023 H           -7.0359     4.3402    10.2056 H       1      m1     0.0192
   2024 C           -6.7828     3.2830     8.3007 C       1      m1     0.0023
   2025 C           -6.6832     2.0145     7.6914 C       1      m1    -0.0217
   2026 C           -6.5659     4.4219     7.3221 C       1      m1    -0.0036
   2027 C           -5.8228     5.5275     7.9070 C       1      m1    -0.0164
   2028 H           -5.2013     2.7014     9.9814 H       1      m1     0.0254
   2029 C           -4.7786     5.2804     8.8992 C       1      m1    -0.0045
   2030 C           -3.7781     5.0633     6.5234 C       1      m1     0.0064
   2031 C           -3.5996     4.9313     8.6139 C       1      m1     0.0076
   2032 C           -2.8780     4.6327     7.4489 C       1      m1    -0.0267
   2033 C           -2.5454     5.2821     9.6452 C       1      m1    -0.0203
   2034 H           -2.0176     4.1850     7.3951 H       1      m1     0.0206
   2035 H           -1.4242     5.1026     9.8180 H       1      m1     0.0151
   2036 H            0.1246     4.0375    10.1584 H       1      m1     0.0158
   2037 H           -0.3474     3.1974     8.1390 H       1      m1     0.0155
   2038 C            0.3553     2.9017    10.3758 C       1      m1    -0.0205
   2039 C            0.5399     2.6813     7.9180 C       1      m1    -0.0217
   2040 C            0.9763     2.3932     9.2344 C       1      m1     0.0040
   2041 C            2.5331     4.9886     7.2207 C       1      m1     0.0014
   2042 C            2.9427     4.8113     9.9903 C       1      m1     0.0043
   2043 C            3.6431     4.1283     9.1412 C       1      m1    -0.0202
   2044 C            3.6040     4.2882     7.6272 C       1      m1     0.0015
   2045 H            4.2590     3.3253     9.2859 H       1      m1     0.0245
   2046 C            4.4837     3.6277     6.4864 C       1      m1     0.0006
   2047 C            5.8501     3.1482     6.7011 C       1      m1    -0.0050
   2048 H            6.2937     2.1445     9.3172 H       1      m1     0.0180
   2049 C            6.1240     2.2962    10.4727 C       1      m1    -0.0130
   2050 C            6.7270     2.1299     6.4485 C       1      m1     0.0009
   2051 H            7.8592     5.0785     8.0888 H       1      m1     0.0196
   2052 H            8.0551     1.7769     8.8413 H       1      m1     0.0212
   2053 C            8.2843     2.2617     6.8582 C       1      m1    -0.0099
   2054 H            8.8697     3.3118     9.1257 H       1      m1     0.0155
   2055 C            8.6625     5.5195     8.6682 C       1      m1    -0.0203
   2056 C            9.2502     4.3932     9.3892 C       1      m1    -0.0181
   2057 C            9.8626     4.7985    10.4097 C       1      m1     0.0034
   2058 H            9.8062     3.2086     7.2847 H       1      m1     0.0247
   2059 C           11.7063     1.6531    10.2304 C       1      m1    -0.0000
   2060 C           12.2688     3.7264     7.1361 C       1      m1    -0.0017
   2061 C           12.6381     2.6868     8.0120 C       1      m1    -0.0023
   2062 C           14.1321     2.8755     8.2203 C       1      m1    -0.0014
   2063 C           14.9704     3.8935     8.6343 C       1      m1    -0.0011
   2064 C           15.0465     2.2216     7.1325 C       1      m1    -0.0031
   2065 C          -14.8537     8.3933     9.6709 C       1      m1    -0.0023
   2066 C          -14.3932     6.3212     6.7634 C       1      m1    -0.0174
   2067 C          -14.1875     7.2757     7.9276 C       1      m1     0.0010
   2068 C          -13.5660     9.0840     9.3259 C       1      m1    -0.0041
   2069 C          -13.1136     8.0073     8.3692 C       1      m1    -0.0046
   2070 C          -11.6215     8.1104     8.0328 C       1      m1    -0.0063
   2071 C          -11.2773     9.5573    10.2110 C       1      m1     0.0014
   2072 C          -11.0711     8.0085     6.5693 C       1      m1     0.0030
   2073 C          -10.7756     8.4134     9.1163 C       1      m1    -0.0031
   2074 C           -9.6770     6.5445    10.3193 C       1      m1     0.0064
   2075 C           -9.4234     7.6962     9.2802 C       1      m1    -0.0047
   2076 H           -8.7805     8.0548     6.9660 H       1      m1     0.0190
   2077 C           -8.1845     8.7537     9.2364 C       1      m1    -0.0004
   2078 C           -7.7396     9.5605    10.4138 C       1      m1     0.0076
   2079 H           -7.3892     7.2951     7.5876 H       1      m1     0.0133
   2080 C           -7.3222     8.4378     8.1989 C       1      m1    -0.0158
   2081 H           -6.4882     6.3790     8.3991 H       1      m1     0.0189
   2082 C           -6.3648     9.4105     8.1047 C       1      m1    -0.0122
   2083 C           -5.9303     9.3543     6.7339 C       1      m1    -0.0022
   2084 C           -5.6757     7.2434    10.1905 C       1      m1    -0.0041
   2085 C           -4.8687     5.9512     6.6716 C       1      m1     0.0030
   2086 C           -4.6887     6.1102     9.8261 C       1      m1    -0.0022
   2087 C           -4.0908     8.9546     9.9528 C       1      m1     0.0047
   2088 C           -3.2686     6.5886     9.9004 C       1      m1     0.0020
   2089 C           -3.1692     9.5865     6.5888 C       1      m1     0.0024
   2090 C           -3.0680     7.8886     9.4930 C       1      m1     0.0002
   2091 C           -1.4609     8.2590     9.3579 C       1      m1    -0.0186
   2092 C           -1.6621     8.9992     8.0954 C       1      m1     0.0030
   2093 H           -0.8822     7.2901     9.9134 H       1      m1     0.0135
   2094 C           -0.5693     8.6715     6.9664 C       1      m1    -0.0065
   2095 C            0.5985     7.6512     7.0099 C       1      m1     0.0021
   2096 C            1.2927     9.7188     9.8467 C       1      m1    -0.0193
   2097 H            1.1058     7.6386     8.7191 H       1      m1     0.0211
   2098 C            1.7238     7.4266     7.8503 C       1      m1    -0.0157
   2099 C            2.4806     9.5873     9.1992 C       1      m1    -0.0120
   2100 C            2.6892     7.2586    10.0078 C       1      m1    -0.0015
   2101 C            2.9742     6.1019     9.2778 C       1      m1    -0.0040
   2102 C            2.8255     6.2881     8.0016 C       1      m1     0.0038
   2103 C            3.2524     8.4496     9.4729 C       1      m1    -0.0207
   2104 C            3.6646     7.0960     6.7241 C       1      m1     0.0009
   2105 H            4.1561     8.1100     8.9759 H       1      m1     0.0229
   2106 C            4.7195     8.1548     6.7111 C       1      m1    -0.0036
   2107 C            5.7634     8.0935     7.6046 C       1      m1    -0.0077
   2108 C            7.0490     8.1224     8.1056 C       1      m1    -0.0042
   2109 C            7.6706     9.7712     9.7847 C       1      m1    -0.0093
   2110 C            8.3994     7.9601     8.7349 C       1      m1    -0.0041
   2111 C            8.4252     8.7214    10.0238 C       1      m1     0.0023
   2112 C            9.0663     6.7302     9.1012 C       1      m1     0.0047
   2113 C            9.9862     6.4157    10.4039 C       1      m1    -0.0200
   2114 C           10.4035     9.0462     6.7581 C       1      m1     0.0072
   2115 C           10.9597     9.8822     9.0195 C       1      m1    -0.0128
   2116 H           10.9465     6.8887    10.6192 H       1      m1     0.0213
   2117 C           11.3188     8.8937     7.9641 C       1      m1    -0.0108
   2118 H           12.1912     8.1186     7.8592 H       1      m1     0.0191
   2119 C           14.0163     8.7384     7.6924 C       1      m1    -0.0118
   2120 C           14.5353     9.2123    10.4781 C       1      m1     0.0008
   2121 H           15.0377     5.9384     6.2629 H       1      m1     0.0186
   2122 C           14.8471     7.8256     8.5722 C       1      m1    -0.0035
   2123 C          -14.9187    12.4128     6.7689 C       1      m1     0.0064
   2124 H          -14.6665    11.1565    10.3976 H       1      m1     0.0191
   2125 C          -13.9377    11.6638     6.4452 C       1      m1    -0.0254
   2126 H          -13.4155    10.9828     7.0102 H       1      m1     0.0202
   2127 H          -12.7075    12.1533     9.9865 H       1      m1     0.0241
   2128 C          -12.5830     9.9930     9.7055 C       1      m1     0.0018
   2129 H          -12.4838    11.6934     8.2839 H       1      m1     0.0215
   2130 C          -12.2197    11.4280     9.2528 C       1      m1    -0.0374
   2131 C          -11.0130    12.9599     7.3399 C       1      m1    -0.0059
   2132 C          -10.7168    10.9751     9.8205 C       1      m1    -0.0105
   2133 C          -10.3529    13.1599    10.2813 C       1      m1    -0.0011
   2134 H          -10.1820    11.0011     8.8455 H       1      m1     0.0212
   2135 C           -9.6335    12.8412     7.8174 C       1      m1     0.0013
   2136 C           -9.3584    13.4077     9.0507 C       1      m1    -0.0004
   2137 C           -8.6092    12.9266     6.8399 C       1      m1    -0.0306
   2138 H           -8.0704    12.1031     7.0634 H       1      m1     0.0237
   2139 C           -7.9591    13.4340     9.4469 C       1      m1    -0.0046
   2140 C           -6.9275    13.1109    10.5106 C       1      m1    -0.0149
   2141 H           -6.4541    10.5054     8.1388 H       1      m1     0.0202
   2142 C           -5.9262    12.0285    10.3770 C       1      m1    -0.0035
   2143 C           -5.0198    12.7329     9.4939 C       1      m1    -0.0039
   2144 C           -4.1037    12.2944     8.5530 C       1      m1    -0.0045
   2145 C           -3.6876    10.3180    10.0374 C       1      m1    -0.0171
   2146 C           -3.3471    10.9575     8.7783 C       1      m1     0.0029
   2147 C           -3.1066    13.3577     8.2548 C       1      m1    -0.0040
   2148 C           -2.9530     9.7454     8.0132 C       1      m1    -0.0015
   2149 C           -1.7905    12.8685     8.5655 C       1      m1     0.0029
   2150 C           -1.6015    12.5069     9.9808 C       1      m1     0.0036
   2151 C           -1.0526    13.7589     6.5508 C       1      m1    -0.0502
   2152 C           -0.5361    13.0130     7.8013 C       1      m1    -0.0156
   2153 C           -0.6215    11.3380    10.5177 C       1      m1    -0.0026
   2154 H           -0.2424    10.4566     7.0829 H       1      m1     0.0223
   2155 C            0.5230    10.9063     9.6995 C       1      m1     0.0024
   2156 C            0.9764    12.6503     7.8215 C       1      m1     0.0034
   2157 C            1.2624    11.9800     9.0365 C       1      m1     0.0008
   2158 C            1.3982    13.3577     6.6706 C       1      m1    -0.0722
   2159 C            2.0209    13.1967     9.5494 C       1      m1    -0.0172
   2160 H            3.1635    10.3047     8.6801 H       1      m1     0.0166
   2161 H            2.6266    13.4181     8.6536 H       1      m1     0.0273
   2162 C            3.7774    13.6878     7.0199 C       1      m1    -0.0116
   2163 C            4.4885    12.9240     8.0642 C       1      m1    -0.0058
   2164 H            4.5656    11.0049     8.2020 H       1      m1     0.0190
   2165 C            4.8410    13.1037     9.5182 C       1      m1    -0.0007
   2166 C            5.3850    11.6821     7.7357 C       1      m1    -0.0330
   2167 H            5.3834    12.1197     6.5811 H       1      m1     0.0162
   2168 C            6.7117    11.6697     8.3529 C       1      m1    -0.0011
   2169 C            6.8028    10.8431     9.4793 C       1      m1     0.0007
   2170 C            7.8275    11.9266     7.4777 C       1      m1    -0.0116
   2171 C            7.8463    13.4135     7.5534 C       1      m1     0.0145
   2172 C            8.6242    12.9177    10.0141 C       1      m1    -0.0012
   2173 C            9.0845    10.9479     7.7033 C       1      m1     0.0269
   2174 C            9.4935    10.0091     6.7556 C       1      m1    -0.0146
   2175 C            9.8617    12.1784     9.6166 C       1      m1     0.0130
   2176 C            9.9626    10.9477     8.8169 C       1      m1     0.0151
   2177 C           10.9151    12.8909    10.0959 C       1      m1     0.0143
   2178 O           11.0545    13.1192     6.6706 O       1      m1    -0.4169
   2179 H           11.5938    10.4978     9.7205 H       1      m1     0.0255
   2180 H           13.1274    10.2030     6.7695 H       1      m1     0.0322
   2181 C           13.6005    10.1123     7.7636 C       1      m1    -0.0079
   2182 C           13.7486    11.4338    10.2553 C       1      m1     0.0088
   2183 C           14.2908    13.4445     8.0763 C       1      m1     0.0071
   2184 C           14.6424    10.8967     8.4139 C       1      m1     0.0076
   2185 C           14.9194    10.5879     9.7897 C       1      m1    -0.0209
   2186 C           14.7525    12.2695     7.9086 C       1      m1     0.0038
   2187 C          -15.0235    13.7766    12.9379 C       1      m1    -0.0032
   2188 C          -13.5579   -13.5847    12.7813 C       1      m1    -0.0025
   2189 H          -12.9921   -11.9375    13.4925 H       1      m1     0.0217
   2190 C          -12.5288   -13.0332    13.8823 C       1      m1    -0.0299
   2191 H          -11.5740   -13.3985    13.4910 H       1      m1     0.0200
   2192 H          -10.8997   -13.3749    11.9976 H       1      m1     0.0148
   2193 C          -10.5192   -13.5038    10.8271 C       1      m1    -0.0153
   2194 H           -9.2475    13.6739    13.9637 H       1      m1     0.0155
   2195 C           -9.4864   -13.1320    14.5259 C       1      m1    -0.0173
   2196 H           -8.8622   -10.8081   -14.6214 H       1      m1     0.0152
   2197 C           -8.6986   -11.8963    14.4657 C       1      m1    -0.0143
   2198 C           -8.5841   -11.8532    11.1583 C       1      m1    -0.0065
   2199 C           -7.5524   -11.6317    11.9109 C       1      m1    -0.0022
   2200 C           -7.5052   -12.1883    13.5445 C       1      m1    -0.0161
   2201 H           -6.9789   -13.1204    13.6900 H       1      m1     0.0188
   2202 C           -7.0256   -10.3704    11.5208 C       1      m1     0.0031
   2203 C           -6.5918   -10.8948    13.8363 C       1      m1    -0.0028
   2204 H           -4.0423   -11.3478    13.5604 H       1      m1     0.0370
   2205 H           -3.6998   -13.7121    14.4833 H       1      m1     0.0136
   2206 C           -3.1807   -11.8804    13.6720 C       1      m1     0.0169
   2207 C           -2.9400   -13.0760    14.3062 C       1      m1    -0.0010
   2208 C           -2.1694   -11.2270    13.3699 C       1      m1     0.0137
   2209 C           -1.5232   -13.3943    14.1268 C       1      m1    -0.0012
   2210 C           -1.1046   -12.0845    13.6091 C       1      m1     0.0023
   2211 C            0.0735   -12.0660    13.1772 C       1      m1    -0.0046
   2212 C            0.3021   -11.3261    11.1117 C       1      m1    -0.0031
   2213 C            0.4816   -13.3906    13.2215 C       1      m1     0.0020
   2214 C            0.8503   -11.2348    12.4370 C       1      m1    -0.0076
   2215 C            1.0786   -10.0571    13.0942 C       1      m1    -0.0090
   2216 H            2.3161   -13.1522    12.0922 H       1      m1     0.0189
   2217 C            3.7556   -11.2786   -14.7287 C       1      m1    -0.0203
   2218 H            4.1388   -11.4209    13.8833 H       1      m1     0.0168
   2219 H            5.0787   -13.3478    11.3395 H       1      m1     0.0163
   2220 H            5.7548   -12.2508    13.5796 H       1      m1     0.0143
   2221 C            5.7247   -13.2438    14.3751 C       1      m1    -0.0142
   2222 C            6.5164   -10.5039    10.6778 C       1      m1     0.0005
   2223 C            7.5264   -10.7475    11.7644 C       1      m1     0.0010
   2224 C            7.5245   -11.5823    14.2253 C       1      m1    -0.0065
   2225 C            8.0731   -11.8191    12.8740 C       1      m1    -0.0125
   2226 C            8.7923   -13.1653    12.7750 C       1      m1    -0.0098
   2227 H            8.9360    -9.7978    12.9599 H       1      m1     0.0192
   2228 H            9.8020   -12.9469    11.0104 H       1      m1     0.0225
   2229 C           12.5678   -13.2952    10.9665 C       1      m1    -0.0033
   2230 C           13.3629   -12.8175    11.9385 C       1      m1    -0.0118
   2231 C           13.9515   -11.7660    13.9238 C       1      m1     0.0015
   2232 H           13.9670    -9.8917    12.3988 H       1      m1     0.0349
   2233 C           14.1192   -12.8741    13.0715 C       1      m1    -0.0049
   2234 C           14.4753   -10.4786    13.2791 C       1      m1    -0.0277
   2235 C          -15.0878    -9.5448    13.6325 C       1      m1     0.0304
   2236 C          -13.9318    -9.0928    14.4694 C       1      m1    -0.0170
   2237 C          -13.9001    -5.8781    11.4043 C       1      m1     0.1954
   2238 H          -13.3423    -8.1863   -14.5997 H       1      m1     0.0230
   2239 H          -12.5159    -6.4707    13.9443 H       1      m1     0.0345
   2240 H           -9.9071    -9.2296    13.0119 H       1      m1     0.0198
   2241 C          -10.0793    -8.3499    12.5303 C       1      m1    -0.0239
   2242 C           -9.9902    -8.2967    11.1490 C       1      m1     0.0111
   2243 C           -9.7349    -7.5184    13.7493 C       1      m1     0.0034
   2244 C           -8.6870    -6.2411    13.9924 C       1      m1    -0.0018
   2245 H           -7.5455    -9.0513   -14.6443 H       1      m1     0.0172
   2246 C           -7.3739    -6.7327    14.4357 C       1      m1    -0.0008
   2247 C           -7.4467    -8.1817    14.0018 C       1      m1    -0.0215
   2248 C           -6.7025    -9.9668    12.8939 C       1      m1    -0.0066
   2249 C           -6.7737    -8.3814    12.7786 C       1      m1    -0.0003
   2250 C           -6.4961    -7.6744    11.6305 C       1      m1    -0.0041
   2251 C           -6.2266    -6.3227    11.7736 C       1      m1    -0.0058
   2252 H           -5.2799    -9.9823   -14.3627 H       1      m1     0.0584
   2253 H           -4.6437    -7.8626    14.0245 H       1      m1     0.0238
   2254 C           -3.5982    -7.9299    13.5677 C       1      m1    -0.0202
   2255 C           -3.3087    -6.8279    13.0599 C       1      m1     0.0034
   2256 H           -3.0917    -8.8464    11.0283 H       1      m1     0.0219
   2257 C           -2.5034    -8.8319    14.0015 C       1      m1     0.0257
   2258 C           -2.3228    -9.4504    11.3679 C       1      m1    -0.0215
   2259 C           -2.1216    -9.7168    12.8000 C       1      m1    -0.0004
   2260 C           -1.4440    -8.0124   -14.6709 C       1      m1    -0.0313
   2261 C           -0.9702    -6.9343    13.8078 C       1      m1     0.0044
   2262 C           -0.8003    -6.3448    11.4177 C       1      m1     0.0012
   2263 C           -0.2602    -7.1695    12.4244 C       1      m1     0.0031
   2264 C            0.6088    -8.1283    11.8988 C       1      m1    -0.0005
   2265 C            0.9777    -7.6025    10.5931 C       1      m1     0.0161
   2266 C            1.4335    -8.6718    12.9656 C       1      m1    -0.0093
   2267 C            2.7039    -7.9208    13.0246 C       1      m1     0.0299
   2268 C            2.8819    -7.2808    14.3966 C       1      m1    -0.0466
   2269 C            3.4293    -8.2746    10.4412 C       1      m1     0.0102
   2270 H            3.4240    -6.1424    14.5573 H       1      m1     0.1014
   2271 H            3.9560    -7.6866    14.5239 H       1      m1     0.0493
   2272 C            3.6013    -8.0066    11.9019 C       1      m1    -0.0388
   2273 H            4.5961    -9.3168   -14.5599 H       1      m1     0.0207
   2274 C            5.0692    -7.6000    12.4785 C       1      m1     0.2880
   2275 O            5.2553    -6.4155    12.9930 O       1      m1    -0.4541
   2276 C            5.8200    -9.3636    10.9249 C       1      m1    -0.0004
   2277 C            6.1740    -8.5498    12.1857 C       1      m1    -0.0546
   2278 C            7.6396    -8.2531    12.4746 C       1      m1     0.0283
   2279 C            8.0120    -6.2764    14.4578 C       1      m1     0.0443
   2280 C            8.1649    -9.6026    12.3367 C       1      m1    -0.0283
   2281 C            8.2566    -7.3065    13.3315 C       1      m1     0.0102
   2282 C            9.5694    -7.0556    13.0723 C       1      m1    -0.0305
   2283 H            9.9875    -7.7355    12.2345 H       1      m1     0.0259
   2284 C           10.3654    -6.1185    13.7496 C       1      m1     0.0043
   2285 H           12.3576    -6.0554    11.5786 H       1      m1     0.0465
   2286 H           12.3700    -6.3083    14.6583 H       1      m1     0.0284
   2287 O           15.1381    -6.4328    11.6431 O       1      m1    -0.4418
   2288 C          -14.8291    -3.0453    14.5562 C       1      m1    -0.0385
   2289 H          -15.0491    -4.0379    14.1693 H       1      m1     0.0256
   2290 C          -14.6403    -2.2652    12.3950 C       1      m1    -0.0056
   2291 C          -14.0406    -5.8896    12.6348 C       1      m1     0.1067
   2292 C          -14.1040    -2.0415    13.6018 C       1      m1    -0.0018
   2293 C          -13.1157    -5.7311    13.6894 C       1      m1    -0.0649
   2294 H          -11.4773    -1.8253    13.5462 H       1      m1     0.3003
   2295 H          -10.7253    -3.8034    13.5262 H       1      m1     0.0551
   2296 C          -10.3371    -4.6145    13.9272 C       1      m1    -0.0157
   2297 C           -9.5009    -3.3340    11.3613 C       1      m1    -0.0008
   2298 C           -9.3846    -5.8326    11.3298 C       1      m1    -0.0048
   2299 C           -9.2251    -4.8600    11.9720 C       1      m1     0.0014
   2300 C           -8.9461    -4.9031    13.4687 C       1      m1     0.0028
   2301 C           -6.1057    -5.1964    11.3686 C       1      m1     0.0009
   2302 C           -5.9889    -3.8146    11.2655 C       1      m1    -0.0231
   2303 C           -5.2511    -3.6438    12.5223 C       1      m1    -0.0009
   2304 C           -4.6414    -3.4868    13.5772 C       1      m1    -0.0044
   2305 H           -4.0545    -4.5750    10.6881 H       1      m1     0.0239
   2306 C           -3.0743    -5.4795    12.5154 C       1      m1    -0.0231
   2307 H           -3.0373    -4.5330    13.0801 H       1      m1     0.0187
   2308 C           -2.1026    -5.6222    11.3544 C       1      m1    -0.0066
   2309 H           -0.8501    -4.1814    11.3224 H       1      m1     0.0266
   2310 C           -0.7215    -5.7027    14.4618 C       1      m1     0.0014
   2311 C           -0.2366    -4.4940    13.5331 C       1      m1     0.0107
   2312 C           -0.3620    -3.9272    12.2128 C       1      m1    -0.0235
   2313 C            0.7389    -3.7048    14.1765 C       1      m1    -0.0263
   2314 C            0.7920    -2.9959    11.8042 C       1      m1     0.0151
   2315 C            1.6283    -2.9164    13.0745 C       1      m1     0.0437
   2316 O            3.5517    -4.2791    11.0605 O       1      m1    -0.4527
   2317 C            4.5765    -4.9983    10.6954 C       1      m1     0.3229
   2318 C            5.1447    -3.1833    14.2299 C       1      m1     0.0589
   2319 C            6.0188    -4.3778    11.1522 C       1      m1     0.0028
   2320 C            6.2845    -3.2219    13.3351 C       1      m1     0.0111
   2321 C            6.3392    -3.0286    11.7727 C       1      m1     0.0256
   2322 H            7.0596    -2.9319    13.9763 H       1      m1     0.0216
   2323 C            7.2208    -5.0284    11.0047 C       1      m1     0.0219
   2324 C            7.7663    -2.3726    11.3947 C       1      m1    -0.0144
   2325 C            8.6483    -4.5238    11.5875 C       1      m1    -0.0084
   2326 C            9.0943    -3.4390    11.4745 C       1      m1    -0.0021
   2327 H            9.4222    -5.4692    11.7712 H       1      m1     0.0285
   2328 C           10.5761    -3.2584    11.6020 C       1      m1     0.0004
   2329 C           11.5546    -4.1422    11.9511 C       1      m1    -0.0170
   2330 C           11.8851    -5.7411    13.8300 C       1      m1    -0.0311
   2331 H           11.7152    -4.7112    14.1797 H       1      m1     0.0184
   2332 C           12.4397    -5.2172    12.4825 C       1      m1     0.0156
   2333 H           14.6087    -3.9313    12.2512 H       1      m1     0.0413
   2334 C           14.9986    -3.1185    11.5727 C       1      m1    -0.0136
   2335 H          -14.5445    -0.2423    10.9542 H       1      m1     0.0210
   2336 H           14.8277     2.1483    11.7805 H       1      m1     0.0209
   2337 C          -14.2028    -0.9023    11.7101 C       1      m1    -0.0194
   2338 C          -13.8327    -0.7279    14.1590 C       1      m1    -0.0009
   2339 C          -14.3143    -0.0390    12.9119 C       1      m1    -0.0031
   2340 C          -12.7233    -1.1441    11.1661 C       1      m1    -0.0061
   2341 H          -11.5195     1.3114    14.2156 H       1      m1     0.0241
   2342 C          -11.6079    -0.2184    11.1975 C       1      m1    -0.0127
   2343 H          -10.9439     0.0729    12.7898 H       1      m1     0.0510
   2344 O          -10.7807    -1.6270    14.1475 O       1      m1    -0.7075
   2345 C          -10.2762    -0.2456    11.9057 C       1      m1    -0.0010
   2346 C           -9.3389    -1.3805    14.5146 C       1      m1     0.3010
   2347 C           -9.2963     1.7300    10.5020 C       1      m1    -0.0067
   2348 C           -9.4800     0.9515    11.7565 C       1      m1    -0.0053
   2349 C           -8.9474     1.4171    13.0533 C       1      m1    -0.0216
   2350 C           -8.1187    -1.2311    13.8251 C       1      m1    -0.0924
   2351 H           -7.9555    -1.3364    12.6075 H       1      m1     0.0353
   2352 H           -7.4571    -0.9215    10.9306 H       1      m1     0.0157
   2353 C           -7.0077    -0.8334    14.7003 C       1      m1     0.0069
   2354 C           -6.3243    -0.9493    10.8571 C       1      m1    -0.0259
   2355 H           -5.5589     1.2060    14.2108 H       1      m1     0.0294
   2356 C           -5.7138    -1.2495    13.1138 C       1      m1    -0.0038
   2357 C           -5.8511    -1.2921    14.2990 C       1      m1    -0.0008
   2358 C           -5.3566    -1.3119    11.9482 C       1      m1     0.0031
   2359 C           -3.9040    -1.0859    11.4547 C       1      m1    -0.0060
   2360 C           -3.6404     1.6939    13.6025 C       1      m1     0.0319
   2361 C           -3.0599    -0.7788    12.4655 C       1      m1    -0.0020
   2362 C           -2.7818     0.7763    14.2428 C       1      m1     0.0051
   2363 C           -2.3980    -0.5356    13.4550 C       1      m1    -0.0222
   2364 H           -1.4081    -1.0693    13.4191 H       1      m1     0.0131
   2365 H            0.2341     0.7785    14.4767 H       1      m1     0.0153
   2366 C            1.8133     1.3681    11.0587 C       1      m1    -0.0224
   2367 C            2.4009    -1.8058    13.4399 C       1      m1    -0.0284
   2368 H            2.9588    -1.6188    12.4450 H       1      m1     0.0373
   2369 H            1.8482     0.8002    11.9172 H       1      m1     0.0167
   2370 C            4.6707     1.3586    12.0103 C       1      m1    -0.0050
   2371 C            4.9936     1.2595    10.5797 C       1      m1    -0.0003
   2372 H            5.1768    -0.9872    12.2266 H       1      m1     0.0213
   2373 C            5.6626    -1.6621    11.3826 C       1      m1    -0.0029
   2374 C            5.6168     0.4012    14.3282 C       1      m1    -0.0043
   2375 C            5.7435     0.8300    12.9044 C       1      m1    -0.0077
   2376 C            7.1833     1.2743    12.3503 C       1      m1     0.0019
   2377 C            7.3788     1.4564    10.8318 C       1      m1    -0.0203
   2378 C            8.4644     1.0959    13.0945 C       1      m1    -0.0080
   2379 C            8.3858     0.3684    14.4314 C       1      m1    -0.0070
   2380 H           10.0199    -0.5487    11.3234 H       1      m1     0.0192
   2381 H            9.7778    -0.7418    13.3006 H       1      m1     0.0209
   2382 C           10.4628    -0.7168    12.3905 C       1      m1    -0.0312
   2383 C           11.0413     1.8100    11.4201 C       1      m1    -0.0049
   2384 C           11.1231     0.5938    12.3911 C       1      m1     0.0035
   2385 C           11.2804    -1.8579    11.4964 C       1      m1    -0.0320
   2386 H           12.3351    -2.0670    11.8420 H       1      m1     0.0215
   2387 C           12.3374     0.3906    13.0536 C       1      m1    -0.0026
   2388 C           13.6363     0.2798    13.2163 C       1      m1    -0.0079
   2389 C           14.9084     0.7223    13.3658 C       1      m1    -0.0046
   2390 C          -14.9942     2.0472    14.2188 C       1      m1    -0.0018
   2391 C          -14.6197     2.8144    11.6016 C       1      m1    -0.0155
   2392 C          -13.9846     3.6076    12.5555 C       1      m1    -0.0161
   2393 H          -13.8397     5.6511    10.4173 H       1      m1     0.0183
   2394 C          -14.1201     3.1276    13.9802 C       1      m1    -0.0023
   2395 H          -13.4369     4.5136    12.3594 H       1      m1     0.0217
   2396 H          -11.8206     2.1037    12.5618 H       1      m1     0.0198
   2397 C          -11.6313     5.7314    12.9447 C       1      m1    -0.0037
   2398 C          -11.7435     5.8334    11.7789 C       1      m1    -0.0077
   2399 C          -11.0054     2.8416    12.4652 C       1      m1    -0.0213
   2400 C          -11.0724     3.5778    11.1666 C       1      m1     0.0059
   2401 C          -10.8141     1.9933   -14.6381 C       1      m1    -0.0068
   2402 C           -9.9722     2.3691    13.4905 C       1      m1    -0.0008
   2403 C           -9.6883     4.0995    10.8109 C       1      m1    -0.0142
   2404 H           -8.9544     4.1332    11.6204 H       1      m1     0.0206
   2405 H           -8.1450     4.3607    13.1356 H       1      m1     0.0177
   2406 H           -7.9880     1.2457    13.3635 H       1      m1     0.0195
   2407 C           -7.1667     4.4148    12.7474 C       1      m1    -0.0211
   2408 C           -6.7836     5.4428    14.7344 C       1      m1     0.0011
   2409 C           -6.7115     5.5647    11.8734 C       1      m1     0.0176
   2410 C           -6.2632     4.3272    14.0134 C       1      m1    -0.0509
   2411 H           -5.2416     2.4604    11.7921 H       1      m1     0.0240
   2412 H           -5.4013     4.1632    11.0154 H       1      m1     0.0263
   2413 C           -5.1825     3.5012    14.3258 C       1      m1     0.2463
   2414 C           -5.0494     2.1348    14.0086 C       1      m1    -0.0630
   2415 C           -4.9962     3.1003    10.9927 C       1      m1    -0.0578
   2416 C           -3.5746     3.6968    11.6444 C       1      m1     0.0109
   2417 C           -3.0584     2.7207    12.6456 C       1      m1     0.0117
   2418 C           -2.4832     4.4530    11.1071 C       1      m1    -0.0015
   2419 C           -1.7537     3.0298    12.7912 C       1      m1    -0.0004
   2420 C           -1.4798     4.2757    12.0141 C       1      m1    -0.0128
   2421 H           -1.1619     2.3809    13.4960 H       1      m1     0.0244
   2422 H           -0.6007     4.8378    12.0352 H       1      m1     0.0192
   2423 C            0.9025     2.4498    11.6764 C       1      m1    -0.0003
   2424 C            0.9555     2.8768    14.3912 C       1      m1    -0.0136
   2425 C            1.3731     2.9886    12.9301 C       1      m1    -0.0045
   2426 C            2.4573     3.7798    12.6343 C       1      m1    -0.0008
   2427 C            2.6607     4.3001    11.2870 C       1      m1    -0.0041
   2428 C            3.3734     5.8224   -14.6764 C       1      m1     0.0006
   2429 C            3.4433     4.6664    13.5884 C       1      m1    -0.0192
   2430 H            4.0159     3.8341    14.1280 H       1      m1     0.0208
   2431 C            4.3426     5.2307    12.6143 C       1      m1     0.0032
   2432 C            5.8646     4.9808    12.4746 C       1      m1    -0.0142
   2433 H            6.5253     4.3499    13.0445 H       1      m1     0.0226
   2434 C            6.5305     5.5340    11.4079 C       1      m1    -0.0320
   2435 H            7.6905     5.4746    11.3036 H       1      m1     0.0235
   2436 C            7.8730     3.5654   -14.7101 C       1      m1    -0.0040
   2437 C            8.4264     3.4596    13.4072 C       1      m1    -0.0036
   2438 C            9.1988     4.6128    12.8408 C       1      m1    -0.0041
   2439 C            9.1832     2.3058    13.1165 C       1      m1     0.0032
   2440 C            9.4126     5.8969    13.5310 C       1      m1     0.0063
   2441 C           10.2113     2.8719    12.0340 C       1      m1     0.0001
   2442 C           10.1609     4.1571    11.6536 C       1      m1    -0.0035
   2443 H           12.8263     3.4269    12.3038 H       1      m1     0.0203
   2444 C           12.1841     4.3244    12.8976 C       1      m1    -0.0109
   2445 C           12.1414     3.5447    14.4282 C       1      m1     0.0019
   2446 C           12.9607     5.3708    12.8679 C       1      m1     0.0019
   2447 C           14.1610     2.6026   -14.6921 C       1      m1    -0.0034
   2448 C          -14.0669     7.2048    13.9321 C       1      m1    -0.0219
   2449 H          -13.4563     6.9482    13.0928 H       1      m1     0.0219
   2450 C          -13.0659     7.9685    14.7084 C       1      m1    -0.0048
   2451 H          -10.8896    10.1603    13.8753 H       1      m1     0.0230
   2452 C          -11.6649     7.6213    14.5886 C       1      m1     0.0113
   2453 C          -11.1650     6.1687    14.3082 C       1      m1     0.0049
   2454 C          -10.7909     9.3506    11.7983 C       1      m1     0.0056
   2455 C          -10.9725     8.1456    11.7746 C       1      m1     0.0088
   2456 C          -10.6431     6.8897    11.2980 C       1      m1     0.0064
   2457 H           -8.3838     9.2875    12.5012 H       1      m1     0.0804
   2458 O           -8.0335     7.6424    14.0248 O       1      m1    -0.4785
   2459 C           -8.0580     6.1725    14.4880 C       1      m1     0.2189
   2460 H           -6.2924     7.6363    11.9821 H       1      m1     0.0588
   2461 C           -6.4376     6.7510    11.2830 C       1      m1    -0.0107
   2462 C           -6.3656     9.6987    10.8817 C       1      m1     0.0019
   2463 C           -5.4198     8.5744    10.5971 C       1      m1    -0.0040
   2464 C           -1.1424     9.4126    13.5138 C       1      m1     0.0034
   2465 C           -0.9152     9.3631    12.1176 C       1      m1    -0.0190
   2466 H           -0.5863     8.4988    11.4858 H       1      m1     0.0172
   2467 C            0.2916     9.4435    13.8411 C       1      m1    -0.0264
   2468 H            1.4984     9.0102    10.6378 H       1      m1     0.0184
   2469 H            0.8312     8.6880    13.4187 H       1      m1     0.0164
   2470 H            2.1705     7.6324    12.2267 H       1      m1     0.0123
   2471 C            3.0499     7.3087    11.4816 C       1      m1    -0.0192
   2472 C            3.7395     6.2918    12.0229 C       1      m1    -0.0021
   2473 C            4.0273     6.8099   -14.7323 C       1      m1    -0.0094
   2474 H            5.4301     9.9565    11.4099 H       1      m1     0.0182
   2475 H            5.8685     5.6110    10.4280 H       1      m1     0.0221
   2476 C            5.8073     8.3367    13.9746 C       1      m1    -0.0162
   2477 H            5.9734     7.5748    13.2312 H       1      m1     0.0228
   2478 C            6.0230     9.5860    13.8146 C       1      m1     0.0160
   2479 H            7.9296     6.9712    14.2607 H       1      m1     0.0440
   2480 H            8.7484     9.0965    12.3712 H       1      m1     0.0384
   2481 C            8.3913     6.0035    14.6197 C       1      m1    -0.0186
   2482 C            8.9331     8.3758    11.4232 C       1      m1    -0.0225
   2483 C            9.4499     7.2147    11.7864 C       1      m1    -0.0036
   2484 C           10.1596     6.9902    13.0045 C       1      m1     0.0124
   2485 C           10.4326     9.1073    14.2217 C       1      m1     0.3147
   2486 C           11.0805     7.6571    13.8739 C       1      m1    -0.0438
   2487 C           12.1893     8.3849    13.2505 C       1      m1    -0.0128
   2488 C           12.3186     9.7094    13.5218 C       1      m1    -0.0194
   2489 C           13.2473     7.8480    12.4244 C       1      m1     0.0035
   2490 C           13.9844     6.4941    12.9603 C       1      m1    -0.0044
   2491 C           13.7134     8.6629    11.4081 C       1      m1    -0.0109
   2492 C           14.8325     6.9820    14.0484 C       1      m1     0.0010
   2493 C          -14.8897    11.3414    14.1238 C       1      m1    -0.0022
   2494 C          -13.4690    11.3301    13.8275 C       1      m1    -0.0001
   2495 C          -13.0223    13.4039    11.5827 C       1      m1    -0.0077
   2496 C          -12.5416    11.1594    12.7042 C       1      m1     0.0026
   2497 C          -11.9112    12.1845    11.7717 C       1      m1    -0.0058
   2498 C          -11.4580    10.1974    12.8936 C       1      m1    -0.0146
   2499 C          -10.8747    11.8524    10.9606 C       1      m1    -0.0006
   2500 H           -8.7172    10.9948    11.9608 H       1      m1     0.0203
   2501 C           -8.5265     9.8364    11.7041 C       1      m1    -0.0427
   2502 H           -7.9872    12.7260    11.0543 H       1      m1     0.0161
   2503 H           -7.3120    12.2275    13.8205 H       1      m1     0.0157
   2504 C           -6.4863    11.5165    13.9632 C       1      m1    -0.0143
   2505 C           -6.1117    11.0058    11.4499 C       1      m1    -0.0075
   2506 C           -5.6035    11.3105    12.8136 C       1      m1     0.0021
   2507 C           -4.3764    10.9621    13.5207 C       1      m1    -0.0018
   2508 H           -4.2575    10.7221    10.9821 H       1      m1     0.0238
   2509 H           -3.0100    13.6074    11.0997 H       1      m1     0.0217
   2510 C           -3.0603    10.9098    12.9324 C       1      m1    -0.0046
   2511 C           -2.3415    12.7794    11.1070 C       1      m1    -0.0215
   2512 C           -2.2805    10.2024    14.1401 C       1      m1     0.0029
   2513 C           -2.1795    11.6896    12.1471 C       1      m1     0.0001
   2514 C           -1.3246    10.6946    11.5263 C       1      m1     0.0019
   2515 C           -0.4710    13.3564    14.0820 C       1      m1    -0.0048
   2516 C           -0.3930    11.9688    14.4392 C       1      m1     0.0028
   2517 H            1.5285    11.5463    12.5593 H       1      m1     0.0174
   2518 C            1.4815   -13.6780    12.5086 C       1      m1    -0.0163
   2519 C            1.8150    12.6739    12.2020 C       1      m1    -0.0163
   2520 C            2.5834    12.7680    10.9926 C       1      m1     0.0046
   2521 H            3.3208    10.7777    11.3799 H       1      m1     0.0186
   2522 C            3.6401    11.7893    11.1693 C       1      m1    -0.0253
   2523 C            4.8657    11.9854    10.5178 C       1      m1     0.0016
   2524 C            5.9049    11.7035    14.2507 C       1      m1     0.0044
   2525 C            5.7859    10.8816    10.7777 C       1      m1    -0.0179
   2526 C            6.3438    10.7917    13.2397 C       1      m1     0.0028
   2527 C            7.1277    11.1762    11.7608 C       1      m1    -0.0089
   2528 C            7.9944    12.5179    11.2498 C       1      m1    -0.0052
   2529 C            8.1862    13.5736    12.1958 C       1      m1    -0.0007
   2530 H            8.0156    10.3394    11.6989 H       1      m1     0.0210
   2531 C            9.8929    13.7470    13.5838 C       1      m1     0.0005
   2532 C           10.3414    12.4777    13.0990 C       1      m1    -0.0250
   2533 C           10.7882    11.5267    14.1317 C       1      m1     0.0386
   2534 C           11.2260    10.2108    14.0753 C       1      m1    -0.0612
   2535 H           10.0115    11.9391    12.0593 H       1      m1     0.0200
   2536 C           11.9795    13.1477    10.4552 C       1      m1     0.0038
   2537 H           12.4807    11.7558    12.0340 H       1      m1     0.0196
   2538 C           12.9164    11.7601    10.9962 C       1      m1    -0.0282
   2539 H           13.3385    10.1378    12.9764 H       1      m1     0.0206
   2540 C           15.0143    12.5707    13.4882 C       1      m1    -0.0038
   2541 B           15.1651   -13.8767    14.7360 B       2     BOX     0.0000
   2542 B          -15.1651   -13.8767    14.7360 B       2     BOX     0.0000
   2543 B          -15.1651    13.8767    14.7360 B       2     BOX     0.0000
   2544 B           15.1651    13.8767    14.7360 B       2     BOX     0.0000
   2545 B           15.1651   -13.8767   -14.7360 B       2     BOX     0.0000
   2546 B          -15.1651   -13.8767   -14.7360 B       2     BOX     0.0000
   2547 B          -15.1651    13.8767   -14.7360 B       2     BOX     0.0000
   2548 B           15.1651    13.8767   -14.7360 B       2     BOX     0.0000
@<TRIPOS>BOND
     1      1      3      1
     2      1      5      1
     3      2    407      1
     4      4      5      1
     5      5      6      1
     6      7     10      1
     7      8      9      1
     8      9    360      1
     9      9    365      1
    10     10     11      1
    11     11     13      1
    12     12     15      1
    13     13     14      1
    14     14    365      1
    15     14    369      1
    16     15     16      1
    17     15     60      1
    18     16     17      1
    19     16     19      1
    20     17     18      1
    21     19   2252      1
    22     20     21      1
    23     21     23      1
    24     22     25      1
    25     22     70      1
    26     23     24      1
    27     24     25      1
    28     24     26      1
    29     25     27      1
    30     27     74      1
    31     28     29      1
    32     29     30      1
    33     29    382      1
    34     30     31      1
    35     30     33      1
    36     31     32      1
    37     31   2217      1
    38     33    387      1
    39     34     35      1
    40     35     37      1
    41     36     85      1
    42     37     40      1
    43     38     39      1
    44     39     41      1
    45     39     42      1
    46     40     42      1
    47     41     43      1
    48     41     88      1
    49     42     44      1
    50     43    400      1
    51     43    454      1
    52     44     45      1
    53     44     46      1
    54     45    400      1
    55     46     47      1
    56     48     91      1
    57     49     50      1
    58     50     52      1
    59     50    410      1
    60     51     52      1
    61     52     53      1
    62     53     54      1
    63     54     56      1
    64     54    100      1
    65     55     56      1
    66     56     58      1
    67     57     59      1
    68     57    102      1
    69     57    414      1
    70     58     59      1
    71     58     60      1
    72     59     61      1
    73     61     62      1
    74     61    103      1
    75     62     63      1
    76     63     67      1
    77     63    107      1
    78     64     65      1
    79     65    375      1
    80     65    426      1
    81     66     68      1
    82     67     69      1
    83     67    110      1
    84     68     69      1
    85     68     70      1
    86     69     71      1
    87     70     72      1
    88     71     72      1
    89     72     74      1
    90     73   2260      1
    91     74     75      1
    92     75     76      1
    93     75    434      1
    94     78     79      1
    95     79   2217      1
    96     79   2273      1
    97     80     82      1
    98     80    125      1
    99     80    499      1
   100     81     83      1
   101     81     84      1
   102     81    125      1
   103     82     83      1
   104     82    444      1
   105     83     86      1
   106     85     86      1
   107     86     87      1
   108     89     90      1
   109     89    134      1
   110     89    455      1
   111     91     92      1
   112     91     94      1
   113     92     93      1
   114     92     96      1
   115     93     97      1
   116     95     96      1
   117     96     98      1
   118     97     98      1
   119     97    142      1
   120     98     99      1
   121     99    101      1
   122     99    144      1
   123    101    102      1
   124    101    470      1
   125    102    103      1
   126    103    104      1
   127    104    105      1
   128    104    106      1
   129    106    108      1
   130    106    109      1
   131    107    108      1
   132    107    425      1
   133    108    478      1
   134    109    111      1
   135    109    155      1
   136    111    112      1
   137    113    114      1
   138    114    115      1
   139    115    118      1
   140    116    163      1
   141    118    119      1
   142    119    120      1
   143    120    123      1
   144    120    493      1
   145    121    122      1
   146    121    124      1
   147    121    169      1
   148    122    123      1
   149    122    168      1
   150    123    497      1
   151    126    128      1
   152    127    128      1
   153    128    130      1
   154    128    505      1
   155    129    131      1
   156    130    131      1
   157    130    132      1
   158    131    133      1
   159    132    134      1
   160    132    452      1
   161    134    135      1
   162    135    137      1
   163    136    138      1
   164    136    513      1
   165    136    569      1
   166    137    138      1
   167    140    141      1
   168    140    142      1
   169    142    143      1
   170    143    144      1
   171    143    146      1
   172    144    147      1
   173    145    148      1
   174    145    520      1
   175    146    149      1
   176    146    150      1
   177    147    148      1
   178    147    521      1
   179    148    523      1
   180    149    197      1
   181    149   2401      1
   182    150    151      1
   183    151    153      1
   184    152    153      1
   185    153    154      1
   186    154    155      1
   187    154    156      1
   188    157    158      1
   189    158    207      1
   190    158    532      1
   191    158    535      1
   192    159    160      1
   193    159    204      1
   194    160    161      1
   195    161    163      1
   196    162    163      1
   197    162    535      1
   198    162    541      1
   199    164    165      1
   200    165    166      1
   201    165    171      1
   202    166    168      1
   203    166    169      1
   204    167    168      1
   205    167    170      1
   206    167    543      1
   207    170    171      1
   208    170    214      1
   209    171    172      1
   210    172    173      1
   211    174    175      1
   212    174    553      1
   213    175    177      1
   214    176    177      1
   215    178    179      1
   216    178    222      1
   217    179    180      1
   218    180    181      1
   219    180    227      1
   220    181    182      1
   221    182    567      1
   222    183    184      1
   223    183    185      1
   224    184    186      1
   225    185    188      1
   226    185    517      1
   227    186    187      1
   228    186    189      1
   229    187    191      1
   230    189    190      1
   231    189    192      1
   232    190    194      1
   233    190    235      1
   234    191    192      1
   235    191   2401      1
   236    192    193      1
   237    193    195      1
   238    194    242      1
   239    194    577      1
   240    195    196      1
   241    196    198      1
   242    197    198      1
   243    198    200      1
   244    199    200      1
   245    199    582      1
   246    200    201      1
   247    202    203      1
   248    202    247      1
   249    202    252      1
   250    205    206      1
   251    205    256      1
   252    206    208      1
   253    207    208      1
   254    207    538      1
   255    209    538      1
   256    211    212      1
   257    212    213      1
   258    212   2428      1
   259    213    267      1
   260    214    547      1
   261    214    598      1
   262    215    217      1
   263    216    217      1
   264    217    218      1
   265    217    219      1
   266    218    220      1
   267    218    604      1
   268    219    221      1
   269    219    273      1
   270    220    606      1
   271    220    609      1
   272    221   2436      1
   273    222    225      1
   274    222   2436      1
   275    223    224      1
   276    223    279      1
   277    223    669      1
   278    224    609      1
   279    224    614      1
   280    225    226      1
   281    226    227      1
   282    227    228      1
   283    228    229      1
   284    228    619      1
   285    229    280      1
   286    229    286      1
   287    230   2447      1
   288    231    233      1
   289    232    234      1
   290    232    629      1
   291    233    234      1
   292    234    237      1
   293    236    237      1
   294    236    629      1
   295    236    634      1
   296    237    238      1
   297    239    243      1
   298    240    241      1
   299    240    242      1
   300    240    634      1
   301    241    244      1
   302    241    299      1
   303    242    638      1
   304    243    244      1
   305    245    249      1
   306    245    306      1
   307    245    641      1
   308    246    247      1
   309    246    249      1
   310    248    249      1
   311    248    307      1
   312    248    311      1
   313    250    251      1
   314    251    647      1
   315    251    648      1
   316    252    256      1
   317    253    254      1
   318    253    311      1
   319    255    259      1
   320    255    315      1
   321    255    648      1
   322    256    257      1
   323    258    260      1
   324    259    260      1
   325    259    320      1
   326    260    657      1
   327    261    262      1
   328    261    263      1
   329    261    322      1
   330    262    266      1
   331    262    324      1
   332    264    265      1
   333    265    266      1
   334    265    269      1
   335    265    659      1
   336    266    268      1
   337    267    271      1
   338    267    597      1
   339    268    270      1
   340    268    272      1
   341    269    271      1
   342    269    662      1
   343    270   2473      1
   344    271    663      1
   345    274    275      1
   346    274    664      1
   347    274    709      1
   348    275    277      1
   349    276    277      1
   350    277    279      1
   351    279    280      1
   352    280    282      1
   353    281    283      1
   354    281    713      1
   355    282    284      1
   356    283    284      1
   357    284    285      1
   358    285    286      1
   359    285    288      1
   360    286    287      1
   361    287    625      1
   362    287    675      1
   363    289    290      1
   364    289    291      1
   365    290    292      1
   366    291    293      1
   367    292    294      1
   368    293    296      1
   369    294    297      1
   370    295    296      1
   371    295    298      1
   372    295    680      1
   373    297    299      1
   374    297    300      1
   375    298    299      1
   376    298    683      1
   377    301    304      1
   378    302    303      1
   379    303    304      1
   380    303    306      1
   381    304    305      1
   382    304    307      1
   383    308    309      1
   384    310    692      1
   385    313    315      1
   386    315    318      1
   387    316    317      1
   388    318    319      1
   389    318    320      1
   390    320    324      1
   391    321    322      1
   392    321    325      1
   393    323    325      1
   394    324    326      1
   395    324    659      1
   396    325    327      1
   397    326    327      1
   398    326    329      1
   399    327    330      1
   400    329    331      1
   401    329    701      1
   402    330    331      1
   403    332    333      1
   404    333    336      1
   405    334    335      1
   406    335    336      1
   407    335    337      1
   408    337    339      1
   409    337    707      1
   410    338    341      1
   411    339    342      1
   412    340    341      1
   413    340    709      1
   414    340    713      1
   415    341    345      1
   416    342    346      1
   417    342    712      1
   418    343    344      1
   419    344    345      1
   420    345    346      1
   421    346    347      1
   422    347    349      1
   423    347    719      1
   424    348    352      1
   425    348    719      1
   426    349    350      1
   427    349    353      1
   428    351    354      1
   429    352    353      1
   430    356    358      1
   431    357    777      1
   432    358    359      1
   433    358    360      1
   434    359    361      1
   435    360    412      1
   436    361    362      1
   437    363    364      1
   438    363    729      1
   439    363    735      1
   440    364    418      1
   441    364    730      1
   442    365    367      1
   443    366    367      1
   444    366    418      1
   445    366    420      1
   446    367    370      1
   447    368    735      1
   448    369    370      1
   449    370    371      1
   450    371    373      1
   451    371    376      1
   452    372    374      1
   453    372    423      1
   454    373    374      1
   455    374    741      1
   456    375    376      1
   457    376    377      1
   458    378    379      1
   459    378    433      1
   460    379    380      1
   461    379    381      1
   462    380    382      1
   463    381    748      1
   464    381    751      1
   465    383    384      1
   466    383    751      1
   467    383    755      1
   468    385    386      1
   469    386    387      1
   470    386    389      1
   471    387    388      1
   472    388    391      1
   473    388    441      1
   474    389    390      1
   475    389    392      1
   476    390    757      1
   477    390    762      1
   478    391    392      1
   479    391    446      1
   480    392    393      1
   481    393    396      1
   482    394    707      1
   483    394    712      1
   484    395    396      1
   485    395    762      1
   486    395    764      1
   487    396    397      1
   488    396    398      1
   489    397    399      1
   490    397    448      1
   491    399    401      1
   492    399    453      1
   493    399    769      1
   494    400    402      1
   495    401    403      1
   496    401    457      1
   497    402    403      1
   498    402    406      1
   499    403    405      1
   500    404    458      1
   501    407    459      1
   502    408    460      1
   503    408    463      1
   504    408    782      1
   505    409    411      1
   506    410    411      1
   507    410    414      1
   508    410    463      1
   509    411    412      1
   510    413    415      1
   511    413    468      1
   512    413    782      1
   513    414    416      1
   514    415    417      1
   515    415    784      1
   516    416    419      1
   517    417    418      1
   518    417    419      1
   519    419    421      1
   520    422    424      1
   521    424    428      1
   522    424    476      1
   523    425    426      1
   524    425    428      1
   525    426    427      1
   526    428    480      1
   527    429    430      1
   528    430    431      1
   529    430    432      1
   530    431    485      1
   531    432    433      1
   532    432    800      1
   533    434    435      1
   534    436    437      1
   535    437    438      1
   536    437    806      1
   537    438    439      1
   538    438    492      1
   539    440    441      1
   540    441    442      1
   541    442    443      1
   542    442    444      1
   543    443    814      1
   544    444    445      1
   545    444    446      1
   546    445    504      1
   547    446    447      1
   548    446    448      1
   549    448    449      1
   550    449    450      1
   551    449    451      1
   552    452    455      1
   553    452    508      1
   554    454    456      1
   555    455    456      1
   556    456    458      1
   557    457    824      1
   558    458    459      1
   559    460    462      1
   560    462    464      1
   561    463    465      1
   562    464    465      1
   563    464    466      1
   564    465    467      1
   565    468    469      1
   566    469    472      1
   567    469    831      1
   568    470    471      1
   569    470    521      1
   570    471    472      1
   571    471    473      1
   572    472    474      1
   573    473    475      1
   574    473    527      1
   575    474    475      1
   576    474    835      1
   577    475    836      1
   578    476    479      1
   579    476    835      1
   580    477    478      1
   581    478    480      1
   582    479    481      1
   583    479    837      1
   584    480    481      1
   585    481    482      1
   586    482    483      1
   587    482    530      1
   588    483    484      1
   589    483    486      1
   590    484    842      1
   591    484    893      1
   592    485    487      1
   593    486    487      1
   594    486    490      1
   595    487    489      1
   596    488    842      1
   597    490    491      1
   598    490    540      1
   599    490    842      1
   600    492    494      1
   601    492    847      1
   602    493    495      1
   603    493    496      1
   604    494    495      1
   605    494    850      1
   606    495    548      1
   607    496    499      1
   608    496    500      1
   609    497    548      1
   610    497    553      1
   611    498    500      1
   612    500    501      1
   613    500    503      1
   614    502    503      1
   615    502    555      1
   616    503    504      1
   617    504    505      1
   618    505    506      1
   619    506    507      1
   620    506    508      1
   621    507    509      1
   622    507    561      1
   623    508    510      1
   624    509    510      1
   625    509    566      1
   626    510    511      1
   627    510    512      1
   628    514    864      1
   629    515    516      1
   630    515    517      1
   631    517    518      1
   632    519    869      1
   633    521    524      1
   634    522    580      1
   635    523    524      1
   636    523    525      1
   637    524    527      1
   638    525    580      1
   639    525    582      1
   640    526    527      1
   641    527    528      1
   642    529    531      1
   643    529    887      1
   644    530    531      1
   645    530    886      1
   646    531    534      1
   647    533    534      1
   648    534    535      1
   649    536    539      1
   650    536    591      1
   651    536    594      1
   652    537    896      1
   653    538    539      1
   654    539    544      1
   655    540    541      1
   656    540    542      1
   657    541    543      1
   658    542    546      1
   659    542    896      1
   660    543    544      1
   661    544    546      1
   662    544    547      1
   663    545    546      1
   664    546    549      1
   665    547    600      1
   666    548    549      1
   667    549    551      1
   668    549    552      1
   669    550    602      1
   670    550    905      1
   671    550    955      1
   672    552    554      1
   673    552    900      1
   674    552    905      1
   675    553    556      1
   676    554    555      1
   677    554    557      1
   678    554    906      1
   679    555    559      1
   680    556    558      1
   681    556    559      1
   682    558    560      1
   683    558    606      1
   684    559    561      1
   685    560    562      1
   686    560    610      1
   687    561    562      1
   688    562    563      1
   689    563    564      1
   690    563    565      1
   691    565    566      1
   692    565    911      1
   693    566    862      1
   694    567    569      1
   695    567    570      1
   696    568    569      1
   697    570    624      1
   698    571    572      1
   699    572    574      1
   700    572    920      1
   701    573    574      1
   702    574    575      1
   703    575    576      1
   704    576    577      1
   705    577    581      1
   706    578    579      1
   707    579    580      1
   708    579    929      1
   709    581    582      1
   710    581    583      1
   711    583    585      1
   712    583    638      1
   713    584    585      1
   714    585    586      1
   715    585    639      1
   716    587    942      1
   717    588    590      1
   718    588    647      1
   719    588    649      1
   720    589    590      1
   721    590    592      1
   722    590    593      1
   723    593    594      1
   724    593    946      1
   725    594    949      1
   726    595    597      1
   727    596    599      1
   728    597    598      1
   729    599    601      1
   730    599    603      1
   731    600    602      1
   732    601   1018      1
   733    602    603      1
   734    603    605      1
   735    604    605      1
   736    604    663      1
   737    605    607      1
   738    606    607      1
   739    607    608      1
   740    609    610      1
   741    610    613      1
   742    611    669      1
   743    612    616      1
   744    613    614      1
   745    613    618      1
   746    614    619      1
   747    615    969      1
   748    616    617      1
   749    616    618      1
   750    616    620      1
   751    617    618      1
   752    617    911      1
   753    618    621      1
   754    619    623      1
   755    620    622      1
   756    620    969      1
   757    621    622      1
   758    621    624      1
   759    622    626      1
   760    623    625      1
   761    623    627      1
   762    624    627      1
   763    628    629      1
   764    628    630      1
   765    630    631      1
   766    630    633      1
   767    631    981      1
   768    631    984      1
   769    632    682      1
   770    633    634      1
   771    633    635      1
   772    635    636      1
   773    635    987      1
   774    636    639      1
   775    637    685      1
   776    638    640      1
   777    639    642      1
   778    640    641      1
   779    640    642      1
   780    641    643      1
   781    642    644      1
   782    642    645      1
   783    643    644      1
   784    643    689      1
   785    644    646      1
   786    646    996      1
   787    646   1002      1
   788    648    650      1
   789    649    650      1
   790    649    651      1
   791    650    653      1
   792    652    653      1
   793    652   1007      1
   794    652   1056      1
   795    653    654      1
   796    655    658      1
   797    655   1007      1
   798    655   1010      1
   799    656    657      1
   800    657    659      1
   801    658    660      1
   802    659    699      1
   803    660    699      1
   804    660    700      1
   805    661    662      1
   806    662    664      1
   807    662    704      1
   808    663    665      1
   809    664    665      1
   810    664    666      1
   811    665    667      1
   812    666    668      1
   813    666    710      1
   814    667    668      1
   815    667    669      1
   816    668    670      1
   817    668   1022      1
   818    670    671      1
   819    670    672      1
   820    670   1026      1
   821    671    710      1
   822    671    714      1
   823    673    720      1
   824    674    675      1
   825    674    720      1
   826    677    678      1
   827    679    681      1
   828    681    682      1
   829    681    684      1
   830    682   1041      1
   831    683    684      1
   832    684    685      1
   833    685    686      1
   834    686    688      1
   835    688    690      1
   836    689    692      1
   837    690    691      1
   838    690    693      1
   839    691   1053      1
   840    692    693      1
   841    693    694      1
   842    694    695      1
   843    695    697      1
   844    695    698      1
   845    696    697      1
   846    696   1056      1
   847    696   1061      1
   848    699    701      1
   849    701    702      1
   850    702    703      1
   851    702    705      1
   852    703    705      1
   853    703   1066      1
   854    705    706      1
   855    706    707      1
   856    706    708      1
   857    708    709      1
   858    708    710      1
   859    711   1074      1
   860    712    717      1
   861    713    716      1
   862    714    715      1
   863    714    716      1
   864    716    717      1
   865    717    718      1
   866    717    719      1
   867    720    722      1
   868    721    722      1
   869    721   1086      1
   870    723    724      1
   871    723   1091      1
   872    724    725      1
   873    724    726      1
   874    724    776      1
   875    726    728      1
   876    726    780      1
   877    727    729      1
   878    728    729      1
   879    728    730      1
   880    730    784      1
   881    731    732      1
   882    732    733      1
   883    732    734      1
   884    732    736      1
   885    733    788      1
   886    733   1149      1
   887    734   1098      1
   888    737    788      1
   889    738    740      1
   890    739    740      1
   891    740    742      1
   892    740    793      1
   893    741    742      1
   894    741    743      1
   895    742    744      1
   896    742    796      1
   897    743    745      1
   898    745    746      1
   899    746    747      1
   900    747    748      1
   901    748    749      1
   902    749    750      1
   903    749    803      1
   904    750    751      1
   905    750    753      1
   906    753    754      1
   907    753    755      1
   908    755    757      1
   909    756    758      1
   910    757    760      1
   911    757    814      1
   912    758    759      1
   913    761   1071      1
   914    763    765      1
   915    764    765      1
   916    764    769      1
   917    765    767      1
   918    765    768      1
   919    766    767      1
   920    766   1080      1
   921    767    770      1
   922    768    771      1
   923    768    818      1
   924    769    771      1
   925    770    772      1
   926    771    773      1
   927    776    777      1
   928    778    779      1
   929    778    781      1
   930    779    780      1
   931    780    783      1
   932    781    782      1
   933    781    783      1
   934    783    784      1
   935    785   1146      1
   936    786    787      1
   937    786   1148      1
   938    786   1191      1
   939    787    789      1
   940    788    789      1
   941    789    791      1
   942    790    835      1
   943    791    792      1
   944    791    793      1
   945    792    794      1
   946    792   1153      1
   947    793    795      1
   948    794    795      1
   949    794    839      1
   950    795    797      1
   951    797    798      1
   952    797    799      1
   953    798    839      1
   954    798    840      1
   955    799    800      1
   956    800    801      1
   957    802    803      1
   958    803    805      1
   959    804    846      1
   960    805    806      1
   961    805    807      1
   962    806    848      1
   963    807    808      1
   964    807    809      1
   965    808    810      1
   966    808   1167      1
   967    809    812      1
   968    810    813      1
   969    811    812      1
   970    812    814      1
   971    813    857      1
   972    815    816      1
   973    816    817      1
   974    816    857      1
   975    817    819      1
   976    818    820      1
   977    818   1127      1
   978    819    821      1
   979    819    859      1
   980    820    822      1
   981    820   1177      1
   982    821    822      1
   983    821    863      1
   984    822    823      1
   985    822    825      1
   986    825   1179      1
   987    825   1180      1
   988    826    863      1
   989    827   1180      1
   990    828    829      1
   991    828    867      1
   992    828    869      1
   993    830    874      1
   994    832    876      1
   995    833    834      1
   996    834    835      1
   997    838   1201      1
   998    839   1201      1
   999    841    892      1
  1000    842    844      1
  1001    843    844      1
  1002    844    845      1
  1003    844    847      1
  1004    845    850      1
  1005    845    897      1
  1006    846    848      1
  1007    846    849      1
  1008    847    848      1
  1009    849    852      1
  1010    849   1209      1
  1011    850    900      1
  1012    851    852      1
  1013    852    853      1
  1014    853    854      1
  1015    853   1214      1
  1016    854    855      1
  1017    854   1217      1
  1018    855    856      1
  1019    855    857      1
  1020    858    859      1
  1021    859    860      1
  1022    860    861      1
  1023    861    862      1
  1024    861    864      1
  1025    862    914      1
  1026    863    864      1
  1027    865    867      1
  1028    866   1232      1
  1029    868    870      1
  1030    869    871      1
  1031    870    872      1
  1032    870    873      1
  1033    870    922      1
  1034    871    872      1
  1035    872    874      1
  1036    873    875      1
  1037    873    928      1
  1038    873   1284      1
  1039    874    875      1
  1040    874    876      1
  1041    875    877      1
  1042    875   1242      1
  1043    876    880      1
  1044    877    878      1
  1045    877    880      1
  1046    878    932      1
  1047    878   1290      1
  1048    879    881      1
  1049    880    882      1
  1050    881    883      1
  1051    881    933      1
  1052    881    935      1
  1053    882    883      1
  1054    882    884      1
  1055    883    885      1
  1056    884    886      1
  1057    885    888      1
  1058    885    939      1
  1059    887    889      1
  1060    887    942      1
  1061    888    890      1
  1062    888   1247      1
  1063    890    891      1
  1064    890    892      1
  1065    891    893      1
  1066    892   1249      1
  1067    894    895      1
  1068    894    944      1
  1069    896    897      1
  1070    898    899      1
  1071    898   1252      1
  1072    898   1253      1
  1073    899    901      1
  1074    899    951      1
  1075    900    902      1
  1076    901    903      1
  1077    901    955      1
  1078    902    904      1
  1079    903    904      1
  1080    903    905      1
  1081    904   1259      1
  1082    907    908      1
  1083    908   1316      1
  1084    909    910      1
  1085    910    912      1
  1086    910   1267      1
  1087    911    913      1
  1088    912    970      1
  1089    912   1273      1
  1090    913    914      1
  1091    913    916      1
  1092    914    917      1
  1093    915    917      1
  1094    918    919      1
  1095    918    979      1
  1096    919    920      1
  1097    919    978      1
  1098    920    921      1
  1099    921    922      1
  1100    923    924      1
  1101    923    926      1
  1102    923   1280      1
  1103    924   1284      1
  1104    925    927      1
  1105    926    927      1
  1106    927    984      1
  1107    929    930      1
  1108    929    933      1
  1109    930    931      1
  1110    930    991      1
  1111    931    932      1
  1112    931    934      1
  1113    932    933      1
  1114    936    938      1
  1115    936    940      1
  1116    936   1000      1
  1117    937    938      1
  1118    937   1002      1
  1119    938    941      1
  1120    939    941      1
  1121    939    943      1
  1122    940   1299      1
  1123    940   1348      1
  1124    941    942      1
  1125    943    944      1
  1126    943   1299      1
  1127    944    945      1
  1128    945    947      1
  1129    945   1301      1
  1130    946   1009      1
  1131    947    948      1
  1132    947    950      1
  1133    949    952      1
  1134    950    951      1
  1135    951    952      1
  1136    952    955      1
  1137    953    954      1
  1138    954    956      1
  1139    954   1013      1
  1140    956    957      1
  1141    956    958      1
  1142    957   1015      1
  1143    957   1311      1
  1144    959    961      1
  1145    960    961      1
  1146    960   1018      1
  1147    960   1022      1
  1148    961    962      1
  1149    962    963      1
  1150    962    964      1
  1151    964    965      1
  1152    965    968      1
  1153    965    969      1
  1154    966    968      1
  1155    966   1324      1
  1156    966   1325      1
  1157    967    970      1
  1158    968    972      1
  1159    969    971      1
  1160    970    972      1
  1161    972    973      1
  1162    973    974      1
  1163    973    975      1
  1164    974   1276      1
  1165    975   1330      1
  1166    976    978      1
  1167    977    980      1
  1168    977   1373      1
  1169    978    981      1
  1170    979    982      1
  1171    982    983      1
  1172    983    985      1
  1173    983   1338      1
  1174    984    985      1
  1175    984    987      1
  1176    985    988      1
  1177    986    989      1
  1178    986   1338      1
  1179    986   1385      1
  1180    987    991      1
  1181    988    989      1
  1182    988    990      1
  1183    988    992      1
  1184    989   1049      1
  1185    991    992      1
  1186    992    993      1
  1187    992    994      1
  1188    995    996      1
  1189    995    997      1
  1190    995    999      1
  1191    997    998      1
  1192    997   1050      1
  1193    998   1001      1
  1194    998   1345      1
  1195    999   1000      1
  1196    999   1002      1
  1197   1000   1001      1
  1198   1001   1348      1
  1199   1003   1004      1
  1200   1004   1005      1
  1201   1004   1006      1
  1202   1006   1007      1
  1203   1006   1058      1
  1204   1008   1009      1
  1205   1009   1010      1
  1206   1010   1011      1
  1207   1011   1012      1
  1208   1011   1013      1
  1209   1012   1014      1
  1210   1013   1015      1
  1211   1014   1353      1
  1212   1014   1410      1
  1213   1015   1353      1
  1214   1016   1017      1
  1215   1017   1019      1
  1216   1017   1067      1
  1217   1018   1019      1
  1218   1019   1021      1
  1219   1020   1070      1
  1220   1022   1024      1
  1221   1023   1024      1
  1222   1023   1025      1
  1223   1024   1026      1
  1224   1025   1027      1
  1225   1025   1364      1
  1226   1026   1028      1
  1227   1027   1028      1
  1228   1027   1075      1
  1229   1028   1079      1
  1230   1029   1030      1
  1231   1030   1031      1
  1232   1030   1082      1
  1233   1031   1033      1
  1234   1031   1034      1
  1235   1032   1033      1
  1236   1033   1035      1
  1237   1033   1372      1
  1238   1034   1087      1
  1239   1036   1038      1
  1240   1037   1038      1
  1241   1037   1039      1
  1242   1038   1040      1
  1243   1040   1041      1
  1244   1041   1043      1
  1245   1042   1045      1
  1246   1043   1044      1
  1247   1043   1045      1
  1248   1044   1047      1
  1249   1045   1046      1
  1250   1047   1048      1
  1251   1049   1050      1
  1252   1049   1387      1
  1253   1050   1051      1
  1254   1050   1392      1
  1255   1052   1392      1
  1256   1053   1054      1
  1257   1055   1398      1
  1258   1056   1058      1
  1259   1057   1059      1
  1260   1058   1060      1
  1261   1059   1060      1
  1262   1059   1403      1
  1263   1060   1061      1
  1264   1060   1062      1
  1265   1061   1063      1
  1266   1063   1064      1
  1267   1064   1065      1
  1268   1065   1066      1
  1269   1065   1068      1
  1270   1066   1067      1
  1271   1067   1070      1
  1272   1068   1069      1
  1273   1069   1070      1
  1274   1069   1415      1
  1275   1071   1073      1
  1276   1071   1074      1
  1277   1072   1076      1
  1278   1074   1077      1
  1279   1075   1078      1
  1280   1075   1422      1
  1281   1076   1078      1
  1282   1076   1424      1
  1283   1077   1079      1
  1284   1077   1081      1
  1285   1078   1079      1
  1286   1078   1427      1
  1287   1079   1082      1
  1288   1081   1084      1
  1289   1082   1085      1
  1290   1083   1427      1
  1291   1084   1085      1
  1292   1084   1086      1
  1293   1085   1087      1
  1294   1086   1090      1
  1295   1087   1088      1
  1296   1088   1089      1
  1297   1089   1090      1
  1298   1091   1093      1
  1299   1092   1094      1
  1300   1094   1438      1
  1301   1094   1442      1
  1302   1095   1142      1
  1303   1096   1097      1
  1304   1097   1451      1
  1305   1099   1102      1
  1306   1099   1451      1
  1307   1101   1102      1
  1308   1102   1103      1
  1309   1102   1456      1
  1310   1104   1157      1
  1311   1105   1157      1
  1312   1106   1107      1
  1313   1106   1110      1
  1314   1106   1461      1
  1315   1107   1108      1
  1316   1107   1110      1
  1317   1108   1109      1
  1318   1111   1113      1
  1319   1112   1113      1
  1320   1112   1166      1
  1321   1113   1115      1
  1322   1114   1116      1
  1323   1114   1476      1
  1324   1115   1117      1
  1325   1116   1117      1
  1326   1116   1118      1
  1327   1117   1120      1
  1328   1118   1478      1
  1329   1119   1121      1
  1330   1119   1170      1
  1331   1120   1121      1
  1332   1120   1122      1
  1333   1121   1123      1
  1334   1122   1125      1
  1335   1124   1126      1
  1336   1125   1128      1
  1337   1126   1128      1
  1338   1126   1129      1
  1339   1128   1130      1
  1340   1129   1132      1
  1341   1129   1176      1
  1342   1130   1131      1
  1343   1131   1132      1
  1344   1131   1486      1
  1345   1132   1133      1
  1346   1133   1539      1
  1347   1134   1135      1
  1348   1135   1136      1
  1349   1137   1181      1
  1350   1138   1140      1
  1351   1138   1184      1
  1352   1138   1546      1
  1353   1139   1184      1
  1354   1140   1141      1
  1355   1140   1493      1
  1356   1141   1144      1
  1357   1141   1495      1
  1358   1142   1143      1
  1359   1142   1145      1
  1360   1143   1144      1
  1361   1143   1146      1
  1362   1144   1147      1
  1363   1145   1442      1
  1364   1145   1496      1
  1365   1146   1148      1
  1366   1147   1148      1
  1367   1147   1189      1
  1368   1150   1152      1
  1369   1151   1152      1
  1370   1151   1193      1
  1371   1151   1561      1
  1372   1152   1154      1
  1373   1153   1194      1
  1374   1154   1155      1
  1375   1155   1156      1
  1376   1155   1159      1
  1377   1156   1160      1
  1378   1156   1200      1
  1379   1157   1158      1
  1380   1157   1159      1
  1381   1159   1161      1
  1382   1160   1161      1
  1383   1160   1202      1
  1384   1162   1163      1
  1385   1163   1164      1
  1386   1163   1515      1
  1387   1164   1165      1
  1388   1164   1520      1
  1389   1165   1168      1
  1390   1165   1525      1
  1391   1166   1167      1
  1392   1167   1168      1
  1393   1168   1169      1
  1394   1169   1170      1
  1395   1169   1171      1
  1396   1171   1172      1
  1397   1171   1526      1
  1398   1172   1173      1
  1399   1172   1528      1
  1400   1173   1176      1
  1401   1174   1175      1
  1402   1174   1177      1
  1403   1174   1221      1
  1404   1177   1224      1
  1405   1178   1225      1
  1406   1178   1536      1
  1407   1179   1224      1
  1408   1179   1228      1
  1409   1180   1181      1
  1410   1182   1539      1
  1411   1183   1184      1
  1412   1183   1185      1
  1413   1185   1186      1
  1414   1185   1230      1
  1415   1186   1187      1
  1416   1187   1188      1
  1417   1187   1237      1
  1418   1188   1190      1
  1419   1188   1553      1
  1420   1189   1190      1
  1421   1189   1191      1
  1422   1190   1192      1
  1423   1191   1194      1
  1424   1192   1193      1
  1425   1192   1559      1
  1426   1193   1194      1
  1427   1195   1196      1
  1428   1196   1197      1
  1429   1196   1199      1
  1430   1197   1198      1
  1431   1197   1567      1
  1432   1198   1200      1
  1433   1198   1568      1
  1434   1199   1200      1
  1435   1199   1201      1
  1436   1202   1204      1
  1437   1203   1204      1
  1438   1203   1205      1
  1439   1203   1249      1
  1440   1204   1207      1
  1441   1205   1206      1
  1442   1205   1251      1
  1443   1206   1208      1
  1444   1206   1571      1
  1445   1207   1208      1
  1446   1207   1209      1
  1447   1208   1210      1
  1448   1210   1212      1
  1449   1210   1574      1
  1450   1211   1255      1
  1451   1212   1213      1
  1452   1212   1215      1
  1453   1216   1261      1
  1454   1217   1219      1
  1455   1218   1219      1
  1456   1219   1220      1
  1457   1220   1221      1
  1458   1220   1222      1
  1459   1223   1224      1
  1460   1223   1225      1
  1461   1223   1226      1
  1462   1226   1227      1
  1463   1227   1271      1
  1464   1229   1590      1
  1465   1230   1231      1
  1466   1231   1232      1
  1467   1233   1234      1
  1468   1234   1235      1
  1469   1234   1277      1
  1470   1234   1594      1
  1471   1235   1236      1
  1472   1235   1596      1
  1473   1236   1238      1
  1474   1236   1282      1
  1475   1238   1240      1
  1476   1238   1599      1
  1477   1239   1558      1
  1478   1240   1241      1
  1479   1240   1655      1
  1480   1241   1242      1
  1481   1242   1243      1
  1482   1244   1245      1
  1483   1244   1567      1
  1484   1244   1605      1
  1485   1245   1246      1
  1486   1245   1248      1
  1487   1246   1247      1
  1488   1246   1294      1
  1489   1249   1250      1
  1490   1250   1251      1
  1491   1251   1620      1
  1492   1253   1256      1
  1493   1254   1255      1
  1494   1255   1256      1
  1495   1255   1258      1
  1496   1256   1259      1
  1497   1257   1260      1
  1498   1257   1306      1
  1499   1257   1626      1
  1500   1258   1261      1
  1501   1258   1627      1
  1502   1260   1262      1
  1503   1260   1683      1
  1504   1261   1631      1
  1505   1262   1263      1
  1506   1263   1264      1
  1507   1263   1265      1
  1508   1265   1320      1
  1509   1265   1633      1
  1510   1266   1267      1
  1511   1267   1268      1
  1512   1268   1271      1
  1513   1269   1271      1
  1514   1270   1272      1
  1515   1271   1272      1
  1516   1272   1273      1
  1517   1272   1274      1
  1518   1273   1276      1
  1519   1275   1643      1
  1520   1278   1279      1
  1521   1278   1281      1
  1522   1279   1282      1
  1523   1279   1648      1
  1524   1280   1281      1
  1525   1280   1332      1
  1526   1280   1339      1
  1527   1281   1283      1
  1528   1282   1283      1
  1529   1283   1285      1
  1530   1284   1285      1
  1531   1285   1286      1
  1532   1287   1288      1
  1533   1287   1654      1
  1534   1287   1656      1
  1535   1289   1291      1
  1536   1290   1292      1
  1537   1291   1293      1
  1538   1291   1343      1
  1539   1292   1293      1
  1540   1292   1294      1
  1541   1293   1295      1
  1542   1294   1296      1
  1543   1295   1296      1
  1544   1295   1298      1
  1545   1296   1300      1
  1546   1297   1299      1
  1547   1298   1350      1
  1548   1298   1665      1
  1549   1299   1301      1
  1550   1300   1303      1
  1551   1300   1614      1
  1552   1301   1302      1
  1553   1303   1304      1
  1554   1304   1305      1
  1555   1304   1724      1
  1556   1305   1674      1
  1557   1306   1308      1
  1558   1306   1676      1
  1559   1307   1309      1
  1560   1308   1309      1
  1561   1308   1680      1
  1562   1309   1312      1
  1563   1309   1313      1
  1564   1310   1314      1
  1565   1313   1314      1
  1566   1313   1315      1
  1567   1314   1316      1
  1568   1315   1317      1
  1569   1315   1318      1
  1570   1316   1318      1
  1571   1317   1363      1
  1572   1317   1684      1
  1573   1318   1319      1
  1574   1320   1322      1
  1575   1320   1688      1
  1576   1321   1323      1
  1577   1322   1323      1
  1578   1322   1326      1
  1579   1323   1325      1
  1580   1325   1327      1
  1581   1326   1327      1
  1582   1326   1692      1
  1583   1327   1328      1
  1584   1329   1331      1
  1585   1330   1331      1
  1586   1331   1371      1
  1587   1333   1335      1
  1588   1334   1703      1
  1589   1335   1337      1
  1590   1335   1338      1
  1591   1335   1340      1
  1592   1336   1340      1
  1593   1336   1703      1
  1594   1336   1750      1
  1595   1340   1383      1
  1596   1341   1342      1
  1597   1341   1709      1
  1598   1341   1715      1
  1599   1342   1343      1
  1600   1344   1345      1
  1601   1345   1347      1
  1602   1345   1394      1
  1603   1346   1719      1
  1604   1348   1349      1
  1605   1350   1724      1
  1606   1351   1402      1
  1607   1352   1409      1
  1608   1353   1355      1
  1609   1354   1355      1
  1610   1354   1356      1
  1611   1354   1409      1
  1612   1355   1357      1
  1613   1356   1359      1
  1614   1356   1776      1
  1615   1357   1358      1
  1616   1357   1360      1
  1617   1359   1360      1
  1618   1359   1361      1
  1619   1360   1362      1
  1620   1362   1363      1
  1621   1362   1364      1
  1622   1363   1734      1
  1623   1365   1366      1
  1624   1366   1367      1
  1625   1366   1432      1
  1626   1367   1368      1
  1627   1367   1369      1
  1628   1369   1370      1
  1629   1369   1371      1
  1630   1370   1434      1
  1631   1371   1372      1
  1632   1373   1375      1
  1633   1374   1375      1
  1634   1375   1377      1
  1635   1376   1377      1
  1636   1376   1379      1
  1637   1377   1380      1
  1638   1380   1381      1
  1639   1381   1382      1
  1640   1383   1384      1
  1641   1383   1385      1
  1642   1385   1387      1
  1643   1386   1388      1
  1644   1387   1389      1
  1645   1388   1389      1
  1646   1388   1390      1
  1647   1388   1391      1
  1648   1389   1392      1
  1649   1391   1393      1
  1650   1392   1394      1
  1651   1394   1396      1
  1652   1395   1397      1
  1653   1396   1397      1
  1654   1396   1398      1
  1655   1397   1399      1
  1656   1398   1400      1
  1657   1399   1401      1
  1658   1399   1764      1
  1659   1401   1402      1
  1660   1402   1403      1
  1661   1403   1404      1
  1662   1404   1407      1
  1663   1405   1408      1
  1664   1406   1409      1
  1665   1407   1412      1
  1666   1408   1411      1
  1667   1409   1775      1
  1668   1410   1413      1
  1669   1411   1774      1
  1670   1412   1413      1
  1671   1412   1414      1
  1672   1413   1415      1
  1673   1414   1417      1
  1674   1415   1416      1
  1675   1415   1417      1
  1676   1417   1418      1
  1677   1417   1419      1
  1678   1420   1421      1
  1679   1421   1423      1
  1680   1423   1425      1
  1681   1424   1426      1
  1682   1425   1428      1
  1683   1425   1737      1
  1684   1426   1427      1
  1685   1426   1429      1
  1686   1427   1430      1
  1687   1428   1429      1
  1688   1428   1432      1
  1689   1429   1431      1
  1690   1431   1787      1
  1691   1432   1434      1
  1692   1433   1434      1
  1693   1434   1436      1
  1694   1436   1790      1
  1695   1438   1440      1
  1696   1439   1440      1
  1697   1440   1441      1
  1698   1440   1443      1
  1699   1442   1443      1
  1700   1443   1494      1
  1701   1444   1445      1
  1702   1444   1449      1
  1703   1446   1448      1
  1704   1447   1448      1
  1705   1447   1804      1
  1706   1447   1808      1
  1707   1448   1500      1
  1708   1448   1502      1
  1709   1449   1450      1
  1710   1449   1451      1
  1711   1449   1452      1
  1712   1453   1456      1
  1713   1454   1458      1
  1714   1455   1457      1
  1715   1455   1811      1
  1716   1456   1459      1
  1717   1457   1458      1
  1718   1457   1459      1
  1719   1458   1818      1
  1720   1459   1461      1
  1721   1461   1462      1
  1722   1461   1465      1
  1723   1462   1466      1
  1724   1462   1509      1
  1725   1463   1464      1
  1726   1464   1467      1
  1727   1464   1821      1
  1728   1466   1467      1
  1729   1466   1468      1
  1730   1466   1516      1
  1731   1467   1469      1
  1732   1469   1825      1
  1733   1470   1472      1
  1734   1471   1472      1
  1735   1471   1516      1
  1736   1471   1521      1
  1737   1472   1474      1
  1738   1473   1474      1
  1739   1474   1476      1
  1740   1475   1521      1
  1741   1476   1477      1
  1742   1478   1481      1
  1743   1479   1481      1
  1744   1480   1483      1
  1745   1480   1835      1
  1746   1481   1482      1
  1747   1482   1483      1
  1748   1482   1484      1
  1749   1484   1485      1
  1750   1484   1531      1
  1751   1486   1488      1
  1752   1487   1538      1
  1753   1488   1489      1
  1754   1488   1491      1
  1755   1489   1490      1
  1756   1489   1846      1
  1757   1490   1848      1
  1758   1492   1853      1
  1759   1492   1856      1
  1760   1495   1496      1
  1761   1495   1556      1
  1762   1496   1499      1
  1763   1497   1498      1
  1764   1497   1908      1
  1765   1497   1913      1
  1766   1501   1503      1
  1767   1502   1503      1
  1768   1502   1868      1
  1769   1503   1505      1
  1770   1504   1505      1
  1771   1504   1561      1
  1772   1504   1562      1
  1773   1505   1506      1
  1774   1506   1508      1
  1775   1506   1871      1
  1776   1507   1509      1
  1777   1508   1513      1
  1778   1509   1514      1
  1779   1510   1511      1
  1780   1511   1512      1
  1781   1511   1514      1
  1782   1512   1513      1
  1783   1512   1570      1
  1784   1513   1877      1
  1785   1514   1515      1
  1786   1515   1517      1
  1787   1516   1518      1
  1788   1517   1518      1
  1789   1517   1519      1
  1790   1518   1884      1
  1791   1519   1574      1
  1792   1521   1522      1
  1793   1522   1524      1
  1794   1522   1884      1
  1795   1523   1525      1
  1796   1525   1526      1
  1797   1526   1527      1
  1798   1527   1528      1
  1799   1527   1580      1
  1800   1528   1581      1
  1801   1529   1531      1
  1802   1530   1534      1
  1803   1530   1581      1
  1804   1531   1533      1
  1805   1532   1533      1
  1806   1533   1534      1
  1807   1533   1535      1
  1808   1534   1536      1
  1809   1536   1537      1
  1810   1537   1541      1
  1811   1537   1589      1
  1812   1538   1539      1
  1813   1538   1541      1
  1814   1540   1542      1
  1815   1541   1542      1
  1816   1543   1545      1
  1817   1544   1545      1
  1818   1545   1547      1
  1819   1547   1548      1
  1820   1547   1549      1
  1821   1547   1550      1
  1822   1549   1552      1
  1823   1549   1902      1
  1824   1549   1906      1
  1825   1550   1551      1
  1826   1550   1554      1
  1827   1551   1553      1
  1828   1551   1596      1
  1829   1552   1554      1
  1830   1552   1909      1
  1831   1552   1960      1
  1832   1553   1557      1
  1833   1554   1597      1
  1834   1555   1556      1
  1835   1555   1557      1
  1836   1557   1558      1
  1837   1558   1559      1
  1838   1558   1601      1
  1839   1559   1560      1
  1840   1560   1561      1
  1841   1560   1565      1
  1842   1562   1564      1
  1843   1562   1917      1
  1844   1563   1565      1
  1845   1565   1567      1
  1846   1566   1920      1
  1847   1569   1611      1
  1848   1569   1616      1
  1849   1569   1928      1
  1850   1571   1572      1
  1851   1571   1620      1
  1852   1572   1573      1
  1853   1572   1623      1
  1854   1574   1575      1
  1855   1575   1576      1
  1856   1575   1577      1
  1857   1576   1578      1
  1858   1576   1938      1
  1859   1578   1579      1
  1860   1579   1630      1
  1861   1581   1582      1
  1862   1582   1583      1
  1863   1582   1584      1
  1864   1584   1585      1
  1865   1585   1640      1
  1866   1585   1944      1
  1867   1586   1588      1
  1868   1587   1640      1
  1869   1587   1948      1
  1870   1587   2005      1
  1871   1588   1589      1
  1872   1588   1590      1
  1873   1589   1591      1
  1874   1591   1592      1
  1875   1592   1950      1
  1876   1593   1594      1
  1877   1593   1646      1
  1878   1595   1644      1
  1879   1597   1598      1
  1880   1598   1600      1
  1881   1598   1964      1
  1882   1600   1602      1
  1883   1600   1652      1
  1884   1602   1604      1
  1885   1603   1605      1
  1886   1604   1605      1
  1887   1604   1606      1
  1888   1605   1607      1
  1889   1607   1655      1
  1890   1607   1662      1
  1891   1608   1658      1
  1892   1609   1610      1
  1893   1610   1611      1
  1894   1610   1613      1
  1895   1611   1922      1
  1896   1612   1613      1
  1897   1612   1614      1
  1898   1612   1663      1
  1899   1613   1615      1
  1900   1614   1617      1
  1901   1615   1616      1
  1902   1615   1619      1
  1903   1616   1618      1
  1904   1617   1619      1
  1905   1619   1620      1
  1906   1619   1621      1
  1907   1622   1624      1
  1908   1623   1624      1
  1909   1624   1625      1
  1910   1625   1629      1
  1911   1625   1987      1
  1912   1626   1627      1
  1913   1627   1628      1
  1914   1629   1994      1
  1915   1630   1631      1
  1916   1631   1633      1
  1917   1632   1634      1
  1918   1633   1634      1
  1919   1634   1636      1
  1920   1635   2053      1
  1921   1636   1637      1
  1922   1636   1688      1
  1923   1638   1639      1
  1924   1639   1641      1
  1925   1639   1642      1
  1926   1640   1641      1
  1927   1643   1645      1
  1928   1644   2005      1
  1929   1644   2007      1
  1930   1646   1647      1
  1931   1646   2008      1
  1932   1647   1648      1
  1933   1647   1649      1
  1934   1649   1650      1
  1935   1649   2011      1
  1936   1650   1651      1
  1937   1650   2017      1
  1938   1651   1708      1
  1939   1652   1653      1
  1940   1652   2017      1
  1941   1654   1711      1
  1942   1655   1656      1
  1943   1656   1657      1
  1944   1657   1660      1
  1945   1657   1662      1
  1946   1658   1659      1
  1947   1658   2025      1
  1948   1659   1660      1
  1949   1659   2026      1
  1950   1660   1661      1
  1951   1660   1664      1
  1952   1661   1716      1
  1953   1661   1717      1
  1954   1662   1663      1
  1955   1663   1664      1
  1956   1664   1666      1
  1957   1666   1667      1
  1958   1666   2030      1
  1959   1667   1668      1
  1960   1668   1670      1
  1961   1668   1724      1
  1962   1669   1671      1
  1963   1670   1671      1
  1964   1670   1672      1
  1965   1671   1674      1
  1966   1672   1675      1
  1967   1672   1728      1
  1968   1673   1984      1
  1969   1674   1676      1
  1970   1675   1677      1
  1971   1675   2041      1
  1972   1676   1678      1
  1973   1677   1679      1
  1974   1677   1730      1
  1975   1678   1679      1
  1976   1678   1680      1
  1977   1679   2046      1
  1978   1680   1681      1
  1979   1682   1684      1
  1980   1684   1686      1
  1981   1685   1686      1
  1982   1686   1735      1
  1983   1687   1689      1
  1984   1688   1690      1
  1985   1689   1691      1
  1986   1689   2053      1
  1987   1689   2058      1
  1988   1690   1691      1
  1989   1690   1692      1
  1990   1691   1693      1
  1991   1692   1694      1
  1992   1693   1694      1
  1993   1693   1696      1
  1994   1694   1695      1
  1995   1694   1738      1
  1996   1696   1742      1
  1997   1696   2060      1
  1998   1697   1699      1
  1999   1698   1699      1
  2000   1698   1700      1
  2001   1698   1743      1
  2002   1699   1701      1
  2003   1700   1702      1
  2004   1700   2066      1
  2005   1701   1703      1
  2006   1701   1704      1
  2007   1702   1704      1
  2008   1702   2072      1
  2009   1704   1705      1
  2010   1705   1707      1
  2011   1705   1753      1
  2012   1706   1707      1
  2013   1706   1708      1
  2014   1706   2072      1
  2015   1706   2076      1
  2016   1707   1712      1
  2017   1708   1710      1
  2018   1710   1711      1
  2019   1710   1713      1
  2020   1712   1714      1
  2021   1712   1756      1
  2022   1714   2083      1
  2023   1715   1716      1
  2024   1716   1719      1
  2025   1717   1718      1
  2026   1717   2085      1
  2027   1718   1720      1
  2028   1718   1721      1
  2029   1719   1721      1
  2030   1720   2083      1
  2031   1720   2089      1
  2032   1721   1722      1
  2033   1722   1723      1
  2034   1723   1725      1
  2035   1723   1765      1
  2036   1724   1727      1
  2037   1726   1728      1
  2038   1728   2095      1
  2039   1729   1731      1
  2040   1730   1731      1
  2041   1730   2104      1
  2042   1731   1732      1
  2043   1731   1733      1
  2044   1732   1778      1
  2045   1732   2106      1
  2046   1734   1735      1
  2047   1735   1738      1
  2048   1736   1737      1
  2049   1737   1741      1
  2050   1738   1739      1
  2051   1739   1740      1
  2052   1740   1741      1
  2053   1740   2114      1
  2054   1741   1785      1
  2055   1744   1745      1
  2056   1744   2123      1
  2057   1745   1746      1
  2058   1746   1749      1
  2059   1746   2125      1
  2060   1747   1748      1
  2061   1748   1749      1
  2062   1748   1752      1
  2063   1749   1751      1
  2064   1751   2131      1
  2065   1754   2137      1
  2066   1755   1756      1
  2067   1756   1757      1
  2068   1757   1758      1
  2069   1758   1760      1
  2070   1760   1761      1
  2071   1761   1763      1
  2072   1761   1764      1
  2073   1762   1765      1
  2074   1763   1766      1
  2075   1764   1767      1
  2076   1765   1768      1
  2077   1765   2089      1
  2078   1766   1769      1
  2079   1766   2151      1
  2080   1767   1769      1
  2081   1767   1770      1
  2082   1768   2094      1
  2083   1768   2154      1
  2084   1769   1771      1
  2085   1771   1772      1
  2086   1772   1774      1
  2087   1773   2158      1
  2088   1773   2162      1
  2089   1774   1775      1
  2090   1775   1776      1
  2091   1776   1777      1
  2092   1777   1778      1
  2093   1778   1779      1
  2094   1781   2170      1
  2095   1782   2174      1
  2096   1783   1784      1
  2097   1783   2178      1
  2098   1784   1786      1
  2099   1784   2178      1
  2100   1785   1786      1
  2101   1786   1788      1
  2102   1787   1789      1
  2103   1792   1855      1
  2104   1793   1795      1
  2105   1794   1798      1
  2106   1795   1798      1
  2107   1796   1855      1
  2108   1797   1799      1
  2109   1797   1855      1
  2110   1797   1860      1
  2111   1798   1799      1
  2112   1798   1800      1
  2113   1799   1803      1
  2114   1800   1802      1
  2115   1801   1804      1
  2116   1802   1804      1
  2117   1803   1805      1
  2118   1803   1862      1
  2119   1805   2193      1
  2120   1805   2198      1
  2121   1806   1863      1
  2122   1807   1808      1
  2123   1807   1809      1
  2124   1808   1811      1
  2125   1809   1812      1
  2126   1810   1869      1
  2127   1811   1813      1
  2128   1812   1813      1
  2129   1812   1814      1
  2130   1813   1815      1
  2131   1814   1816      1
  2132   1815   1817      1
  2133   1815   1819      1
  2134   1816   1819      1
  2135   1818   1821      1
  2136   1819   1820      1
  2137   1820   1823      1
  2138   1820   2258      1
  2139   1821   1822      1
  2140   1823   2212      1
  2141   1824   1881      1
  2142   1826   1827      1
  2143   1826   2212      1
  2144   1828   1885      1
  2145   1829   1830      1
  2146   1830   1834      1
  2147   1830   1889      1
  2148   1830   1890      1
  2149   1831   1832      1
  2150   1831   2219      1
  2151   1832   1833      1
  2152   1832   1834      1
  2153   1834   2222      1
  2154   1835   1837      1
  2155   1836   2171      1
  2156   1836   2172      1
  2157   1837   1838      1
  2158   1837   1839      1
  2159   1838   1840      1
  2160   1839   1841      1
  2161   1840   1841      1
  2162   1840   1842      1
  2163   1841   1843      1
  2164   1842   1844      1
  2165   1842   2228      1
  2166   1843   1845      1
  2167   1843   1898      1
  2168   1844   1845      1
  2169   1844   2229      1
  2170   1846   1847      1
  2171   1847   1848      1
  2172   1847   1849      1
  2173   1849   1850      1
  2174   1849   1852      1
  2175   1853   1854      1
  2176   1854   1855      1
  2177   1854   1858      1
  2178   1856   1858      1
  2179   1856   1906      1
  2180   1857   1904      1
  2181   1858   1861      1
  2182   1859   1860      1
  2183   1860   1861      1
  2184   1860   1862      1
  2185   1862   1863      1
  2186   1862   2242      1
  2187   1863   1865      1
  2188   1864   1866      1
  2189   1864   2242      1
  2190   1864   2298      1
  2191   1865   1866      1
  2192   1866   1914      1
  2193   1867   1868      1
  2194   1868   1871      1
  2195   1869   1870      1
  2196   1869   2202      1
  2197   1870   1872      1
  2198   1870   2250      1
  2199   1871   1873      1
  2200   1872   1873      1
  2201   1873   1874      1
  2202   1875   1876      1
  2203   1875   1877      1
  2204   1875   1926      1
  2205   1876   1879      1
  2206   1876   1927      1
  2207   1877   1878      1
  2208   1878   1879      1
  2209   1878   1881      1
  2210   1879   1880      1
  2211   1880   2262      1
  2212   1880   2265      1
  2213   1881   1882      1
  2214   1882   1883      1
  2215   1882   1885      1
  2216   1883   2265      1
  2217   1883   2269      1
  2218   1884   1885      1
  2219   1884   1886      1
  2220   1885   1887      1
  2221   1886   1888      1
  2222   1888   1938      1
  2223   1889   2269      1
  2224   1889   2276      1
  2225   1891   1892      1
  2226   1892   1893      1
  2227   1892   1894      1
  2228   1893   1940      1
  2229   1894   1895      1
  2230   1894   2323      1
  2231   1896   1897      1
  2232   1896   1941      1
  2233   1897   1900      1
  2234   1897   1947      1
  2235   1898   1899      1
  2236   1899   1900      1
  2237   1900   1901      1
  2238   1902   1903      1
  2239   1903   1955      1
  2240   1903   1960      1
  2241   1904   1905      1
  2242   1904   2237      1
  2243   1905   1907      1
  2244   1906   1908      1
  2245   1907   1910      1
  2246   1907   1959      1
  2247   1908   1909      1
  2248   1909   1911      1
  2249   1910   1912      1
  2250   1910   2297      1
  2251   1911   1912      1
  2252   1912   1915      1
  2253   1913   1914      1
  2254   1913   1917      1
  2255   1914   1916      1
  2256   1917   1918      1
  2257   1918   1920      1
  2258   1918   1921      1
  2259   1919   2302      1
  2260   1920   1922      1
  2261   1921   1923      1
  2262   1922   1925      1
  2263   1923   1924      1
  2264   1923   1925      1
  2265   1924   1927      1
  2266   1924   2305      1
  2267   1925   1928      1
  2268   1927   2308      1
  2269   1928   1930      1
  2270   1929   1930      1
  2271   1930   1931      1
  2272   1930   1932      1
  2273   1931   1933      1
  2274   1931   1982      1
  2275   1933   1934      1
  2276   1934   1986      1
  2277   1934   2314      1
  2278   1935   1936      1
  2279   1935   1990      1
  2280   1936   1938      1
  2281   1937   2317      1
  2282   1939   1940      1
  2283   1940   1941      1
  2284   1941   1942      1
  2285   1942   1944      1
  2286   1943   1944      1
  2287   1944   1945      1
  2288   1945   1946      1
  2289   1945   1947      1
  2290   1945   1948      1
  2291   1947   1949      1
  2292   1948   1950      1
  2293   1949   1950      1
  2294   1949   1951      1
  2295   1952   1953      1
  2296   1953   2334      1
  2297   1954   1955      1
  2298   1954   1958      1
  2299   1955   1956      1
  2300   1956   1959      1
  2301   1957   1958      1
  2302   1957   2010      1
  2303   1958   1961      1
  2304   1959   2340      1
  2305   1960   1962      1
  2306   1961   1962      1
  2307   1961   1963      1
  2308   1962   1964      1
  2309   1963   1966      1
  2310   1963   2342      1
  2311   1964   1965      1
  2312   1965   1967      1
  2313   1965   2017      1
  2314   1966   1967      1
  2315   1966   2347      1
  2316   1967   2018      1
  2317   1968   2025      1
  2318   1969   1971      1
  2319   1970   1971      1
  2320   1970   2354      1
  2321   1971   1972      1
  2322   1972   1974      1
  2323   1972   1975      1
  2324   1973   1975      1
  2325   1974   1977      1
  2326   1974   2359      1
  2327   1975   1976      1
  2328   1975   1978      1
  2329   1977   1979      1
  2330   1977   1980      1
  2331   1978   1980      1
  2332   1978   1981      1
  2333   1980   1983      1
  2334   1984   1987      1
  2335   1984   2039      1
  2336   1985   1988      1
  2337   1985   2040      1
  2338   1985   2366      1
  2339   1987   1988      1
  2340   1988   1989      1
  2341   1989   1990      1
  2342   1989   1991      1
  2343   1991   1992      1
  2344   1991   2371      1
  2345   1992   2373      1
  2346   1993   1995      1
  2347   1994   1995      1
  2348   1994   2050      1
  2349   1995   1998      1
  2350   1996   1997      1
  2351   1996   2324      1
  2352   1997   1998      1
  2353   1998   2000      1
  2354   1999   2377      1
  2355   2000   2001      1
  2356   2000   2052      1
  2357   2000   2053      1
  2358   2002   2004      1
  2359   2003   2385      1
  2360   2004   2059      1
  2361   2004   2061      1
  2362   2007   2064      1
  2363   2008   2011      1
  2364   2009   2012      1
  2365   2009   2013      1
  2366   2010   2013      1
  2367   2010   2391      1
  2368   2011   2012      1
  2369   2012   2014      1
  2370   2012   2066      1
  2371   2013   2015      1
  2372   2013   2393      1
  2373   2015   2016      1
  2374   2015   2398      1
  2375   2015   2400      1
  2376   2019   2020      1
  2377   2019   2074      1
  2378   2019   2403      1
  2379   2021   2022      1
  2380   2021   2347      1
  2381   2022   2023      1
  2382   2022   2024      1
  2383   2024   2025      1
  2384   2024   2026      1
  2385   2026   2027      1
  2386   2027   2029      1
  2387   2027   2081      1
  2388   2027   2085      1
  2389   2028   2415      1
  2390   2029   2031      1
  2391   2029   2086      1
  2392   2030   2032      1
  2393   2030   2085      1
  2394   2031   2032      1
  2395   2031   2033      1
  2396   2032   2034      1
  2397   2033   2035      1
  2398   2033   2088      1
  2399   2033   2418      1
  2400   2036   2038      1
  2401   2037   2039      1
  2402   2038   2040      1
  2403   2038   2423      1
  2404   2039   2040      1
  2405   2041   2044      1
  2406   2041   2102      1
  2407   2042   2043      1
  2408   2042   2101      1
  2409   2042   2427      1
  2410   2043   2044      1
  2411   2043   2045      1
  2412   2044   2046      1
  2413   2046   2047      1
  2414   2047   2050      1
  2415   2048   2049      1
  2416   2049   2371      1
  2417   2049   2377      1
  2418   2050   2053      1
  2419   2051   2055      1
  2420   2054   2056      1
  2421   2055   2056      1
  2422   2055   2112      1
  2423   2056   2057      1
  2424   2057   2113      1
  2425   2057   2442      1
  2426   2059   2383      1
  2427   2060   2061      1
  2428   2061   2062      1
  2429   2062   2063      1
  2430   2062   2064      1
  2431   2065   2068      1
  2432   2066   2067      1
  2433   2067   2069      1
  2434   2068   2069      1
  2435   2068   2128      1
  2436   2069   2070      1
  2437   2070   2072      1
  2438   2070   2073      1
  2439   2071   2073      1
  2440   2071   2128      1
  2441   2071   2132      1
  2442   2071   2454      1
  2443   2073   2075      1
  2444   2074   2075      1
  2445   2074   2456      1
  2446   2075   2077      1
  2447   2077   2078      1
  2448   2077   2080      1
  2449   2078   2462      1
  2450   2078   2501      1
  2451   2079   2080      1
  2452   2080   2082      1
  2453   2082   2083      1
  2454   2082   2141      1
  2455   2084   2086      1
  2456   2084   2461      1
  2457   2084   2463      1
  2458   2086   2088      1
  2459   2087   2090      1
  2460   2087   2145      1
  2461   2087   2463      1
  2462   2088   2090      1
  2463   2089   2148      1
  2464   2090   2091      1
  2465   2091   2092      1
  2466   2091   2093      1
  2467   2092   2094      1
  2468   2092   2148      1
  2469   2094   2095      1
  2470   2095   2098      1
  2471   2096   2099      1
  2472   2096   2155      1
  2473   2096   2468      1
  2474   2097   2098      1
  2475   2098   2102      1
  2476   2099   2103      1
  2477   2099   2160      1
  2478   2100   2101      1
  2479   2100   2103      1
  2480   2100   2471      1
  2481   2101   2102      1
  2482   2102   2104      1
  2483   2103   2105      1
  2484   2104   2106      1
  2485   2106   2107      1
  2486   2107   2108      1
  2487   2108   2110      1
  2488   2109   2111      1
  2489   2109   2169      1
  2490   2110   2111      1
  2491   2110   2112      1
  2492   2111   2482      1
  2493   2112   2113      1
  2494   2113   2116      1
  2495   2113   2483      1
  2496   2114   2117      1
  2497   2114   2174      1
  2498   2115   2117      1
  2499   2115   2176      1
  2500   2115   2179      1
  2501   2117   2118      1
  2502   2119   2122      1
  2503   2119   2181      1
  2504   2120   2185      1
  2505   2120   2491      1
  2506   2123   2125      1
  2507   2125   2126      1
  2508   2127   2130      1
  2509   2128   2130      1
  2510   2129   2130      1
  2511   2130   2132      1
  2512   2131   2135      1
  2513   2132   2134      1
  2514   2132   2499      1
  2515   2133   2136      1
  2516   2133   2499      1
  2517   2135   2136      1
  2518   2135   2137      1
  2519   2136   2139      1
  2520   2137   2138      1
  2521   2139   2140      1
  2522   2140   2142      1
  2523   2140   2502      1
  2524   2142   2143      1
  2525   2142   2505      1
  2526   2143   2144      1
  2527   2144   2146      1
  2528   2144   2147      1
  2529   2145   2146      1
  2530   2145   2508      1
  2531   2146   2148      1
  2532   2147   2149      1
  2533   2149   2150      1
  2534   2149   2152      1
  2535   2150   2153      1
  2536   2150   2511      1
  2537   2151   2152      1
  2538   2152   2156      1
  2539   2153   2155      1
  2540   2153   2514      1
  2541   2155   2157      1
  2542   2156   2157      1
  2543   2156   2158      1
  2544   2157   2159      1
  2545   2159   2161      1
  2546   2159   2520      1
  2547   2162   2163      1
  2548   2163   2165      1
  2549   2163   2166      1
  2550   2164   2166      1
  2551   2165   2523      1
  2552   2166   2167      1
  2553   2166   2168      1
  2554   2168   2169      1
  2555   2168   2170      1
  2556   2169   2525      1
  2557   2170   2171      1
  2558   2170   2173      1
  2559   2172   2175      1
  2560   2172   2528      1
  2561   2173   2174      1
  2562   2173   2176      1
  2563   2175   2176      1
  2564   2175   2177      1
  2565   2177   2536      1
  2566   2180   2181      1
  2567   2181   2184      1
  2568   2182   2185      1
  2569   2182   2538      1
  2570   2183   2186      1
  2571   2184   2185      1
  2572   2184   2186      1
  2573   2188   2190      1
  2574   2189   2190      1
  2575   2190   2191      1
  2576   2192   2193      1
  2577   2195   2197      1
  2578   2197   2200      1
  2579   2198   2199      1
  2580   2199   2200      1
  2581   2199   2202      1
  2582   2200   2201      1
  2583   2200   2203      1
  2584   2202   2248      1
  2585   2203   2248      1
  2586   2204   2206      1
  2587   2205   2207      1
  2588   2206   2207      1
  2589   2206   2208      1
  2590   2207   2209      1
  2591   2208   2210      1
  2592   2208   2259      1
  2593   2209   2210      1
  2594   2210   2211      1
  2595   2211   2213      1
  2596   2211   2214      1
  2597   2212   2214      1
  2598   2213   2518      1
  2599   2214   2215      1
  2600   2215   2266      1
  2601   2216   2518      1
  2602   2220   2221      1
  2603   2222   2223      1
  2604   2222   2276      1
  2605   2223   2225      1
  2606   2223   2280      1
  2607   2224   2225      1
  2608   2225   2226      1
  2609   2227   2280      1
  2610   2229   2230      1
  2611   2230   2233      1
  2612   2231   2233      1
  2613   2231   2234      1
  2614   2232   2234      1
  2615   2235   2236      1
  2616   2237   2291      1
  2617   2239   2293      1
  2618   2240   2241      1
  2619   2241   2242      1
  2620   2241   2243      1
  2621   2243   2244      1
  2622   2244   2246      1
  2623   2244   2300      1
  2624   2246   2247      1
  2625   2247   2249      1
  2626   2248   2249      1
  2627   2249   2250      1
  2628   2250   2251      1
  2629   2251   2301      1
  2630   2253   2254      1
  2631   2254   2255      1
  2632   2254   2257      1
  2633   2255   2306      1
  2634   2256   2258      1
  2635   2257   2259      1
  2636   2258   2259      1
  2637   2261   2263      1
  2638   2261   2310      1
  2639   2262   2263      1
  2640   2262   2308      1
  2641   2263   2264      1
  2642   2264   2265      1
  2643   2264   2266      1
  2644   2266   2267      1
  2645   2267   2268      1
  2646   2267   2272      1
  2647   2268   2270      1
  2648   2268   2271      1
  2649   2269   2272      1
  2650   2272   2274      1
  2651   2274   2275      1
  2652   2274   2277      1
  2653   2276   2277      1
  2654   2277   2278      1
  2655   2278   2280      1
  2656   2278   2281      1
  2657   2279   2281      1
  2658   2281   2282      1
  2659   2282   2283      1
  2660   2282   2284      1
  2661   2284   2330      1
  2662   2285   2332      1
  2663   2286   2330      1
  2664   2288   2289      1
  2665   2288   2292      1
  2666   2290   2292      1
  2667   2290   2337      1
  2668   2291   2293      1
  2669   2292   2338      1
  2670   2294   2344      1
  2671   2295   2296      1
  2672   2296   2300      1
  2673   2297   2299      1
  2674   2298   2299      1
  2675   2299   2300      1
  2676   2301   2302      1
  2677   2302   2303      1
  2678   2303   2304      1
  2679   2306   2307      1
  2680   2306   2308      1
  2681   2309   2312      1
  2682   2310   2311      1
  2683   2311   2312      1
  2684   2311   2313      1
  2685   2312   2314      1
  2686   2313   2315      1
  2687   2314   2315      1
  2688   2315   2367      1
  2689   2316   2317      1
  2690   2317   2319      1
  2691   2318   2320      1
  2692   2319   2321      1
  2693   2319   2323      1
  2694   2320   2321      1
  2695   2320   2322      1
  2696   2321   2324      1
  2697   2321   2373      1
  2698   2323   2325      1
  2699   2324   2326      1
  2700   2325   2326      1
  2701   2325   2327      1
  2702   2326   2328      1
  2703   2328   2329      1
  2704   2328   2385      1
  2705   2329   2332      1
  2706   2330   2331      1
  2707   2330   2332      1
  2708   2333   2334      1
  2709   2335   2337      1
  2710   2337   2339      1
  2711   2337   2340      1
  2712   2338   2339      1
  2713   2340   2342      1
  2714   2342   2345      1
  2715   2343   2345      1
  2716   2344   2346      1
  2717   2345   2348      1
  2718   2346   2350      1
  2719   2347   2348      1
  2720   2348   2349      1
  2721   2349   2402      1
  2722   2349   2406      1
  2723   2350   2351      1
  2724   2350   2353      1
  2725   2352   2354      1
  2726   2353   2357      1
  2727   2354   2358      1
  2728   2355   2414      1
  2729   2356   2357      1
  2730   2356   2358      1
  2731   2358   2359      1
  2732   2359   2361      1
  2733   2360   2362      1
  2734   2360   2414      1
  2735   2360   2417      1
  2736   2361   2363      1
  2737   2362   2363      1
  2738   2363   2364      1
  2739   2366   2369      1
  2740   2366   2423      1
  2741   2367   2368      1
  2742   2370   2371      1
  2743   2370   2375      1
  2744   2372   2373      1
  2745   2374   2375      1
  2746   2375   2376      1
  2747   2376   2377      1
  2748   2376   2378      1
  2749   2378   2379      1
  2750   2378   2439      1
  2751   2380   2382      1
  2752   2381   2382      1
  2753   2382   2384      1
  2754   2382   2385      1
  2755   2383   2384      1
  2756   2383   2441      1
  2757   2384   2387      1
  2758   2385   2386      1
  2759   2387   2388      1
  2760   2388   2389      1
  2761   2390   2394      1
  2762   2391   2392      1
  2763   2392   2394      1
  2764   2392   2395      1
  2765   2396   2399      1
  2766   2397   2398      1
  2767   2397   2453      1
  2768   2398   2456      1
  2769   2399   2400      1
  2770   2399   2402      1
  2771   2400   2403      1
  2772   2403   2404      1
  2773   2405   2407      1
  2774   2407   2409      1
  2775   2407   2410      1
  2776   2408   2410      1
  2777   2408   2459      1
  2778   2409   2461      1
  2779   2410   2413      1
  2780   2411   2415      1
  2781   2412   2415      1
  2782   2413   2414      1
  2783   2415   2416      1
  2784   2416   2417      1
  2785   2416   2418      1
  2786   2417   2419      1
  2787   2418   2420      1
  2788   2419   2420      1
  2789   2419   2421      1
  2790   2420   2422      1
  2791   2423   2425      1
  2792   2424   2425      1
  2793   2425   2426      1
  2794   2426   2427      1
  2795   2426   2429      1
  2796   2428   2473      1
  2797   2429   2430      1
  2798   2429   2431      1
  2799   2431   2432      1
  2800   2431   2472      1
  2801   2432   2433      1
  2802   2432   2434      1
  2803   2434   2435      1
  2804   2434   2475      1
  2805   2437   2438      1
  2806   2437   2439      1
  2807   2438   2440      1
  2808   2438   2442      1
  2809   2439   2441      1
  2810   2440   2481      1
  2811   2440   2484      1
  2812   2441   2442      1
  2813   2443   2444      1
  2814   2444   2445      1
  2815   2444   2446      1
  2816   2446   2490      1
  2817   2448   2449      1
  2818   2448   2450      1
  2819   2450   2452      1
  2820   2451   2498      1
  2821   2452   2453      1
  2822   2454   2455      1
  2823   2454   2498      1
  2824   2455   2456      1
  2825   2457   2501      1
  2826   2458   2459      1
  2827   2460   2461      1
  2828   2462   2463      1
  2829   2462   2505      1
  2830   2464   2465      1
  2831   2464   2467      1
  2832   2464   2512      1
  2833   2465   2466      1
  2834   2465   2514      1
  2835   2467   2469      1
  2836   2470   2471      1
  2837   2471   2472      1
  2838   2474   2525      1
  2839   2476   2477      1
  2840   2476   2478      1
  2841   2478   2526      1
  2842   2479   2481      1
  2843   2480   2482      1
  2844   2482   2483      1
  2845   2483   2484      1
  2846   2484   2486      1
  2847   2485   2486      1
  2848   2485   2534      1
  2849   2486   2487      1
  2850   2487   2488      1
  2851   2487   2489      1
  2852   2488   2534      1
  2853   2488   2539      1
  2854   2489   2490      1
  2855   2489   2491      1
  2856   2490   2492      1
  2857   2493   2494      1
  2858   2494   2496      1
  2859   2495   2497      1
  2860   2496   2497      1
  2861   2496   2498      1
  2862   2497   2499      1
  2863   2500   2501      1
  2864   2503   2504      1
  2865   2504   2506      1
  2866   2505   2506      1
  2867   2506   2507      1
  2868   2507   2510      1
  2869   2509   2511      1
  2870   2510   2512      1
  2871   2510   2513      1
  2872   2511   2513      1
  2873   2513   2514      1
  2874   2515   2516      1
  2875   2517   2519      1
  2876   2519   2520      1
  2877   2520   2522      1
  2878   2521   2522      1
  2879   2522   2523      1
  2880   2523   2525      1
  2881   2524   2526      1
  2882   2525   2527      1
  2883   2526   2527      1
  2884   2527   2528      1
  2885   2527   2530      1
  2886   2528   2529      1
  2887   2531   2532      1
  2888   2532   2533      1
  2889   2532   2535      1
  2890   2533   2534      1
  2891   2536   2538      1
  2892   2537   2538      1
  2893   2541   2542     du
  2894   2542   2543     du
  2895   2543   2544     du
  2896   2544   2541     du
  2897   2545   2546     du
  2898   2546   2547     du
  2899   2547   2548     du
  2900   2548   2545     du
  2901   2544   2548     du
  2902   2545   2541     du
  2903   2543   2547     du
  2904   2546   2542     du
