@<TRIPOS>MOLECULE
LAMMPS data file via write_data, version 29 Oct 2020, timestep = 100 > lmp2SYBYLmol2 v3.0 / 24 May 2023 w/remove_PBC_bonds=True
  3098 972    0    0    0
SMALL
NO_CHARGES
****
Energy = 0

@<TRIPOS>ATOM
      1 H          -15.8852   -15.2886   -12.9820 H       0      f0     0.0113
      2 C          -15.4959   -16.3194   -12.8405 C       0      f0    -0.0223
      3 C          -15.3846   -13.9539   -14.6815 C       0      f0     0.0460
      4 H          -15.0832   -13.7136   -13.6211 H       0      f0     0.0068
      5 C          -14.5406   -14.5519   -15.3329 C       0      f0    -0.0050
      6 C          -14.0452   -16.3964   -16.6177 C       0      f0    -0.0126
      7 C          -13.3972   -15.2121   -15.9881 C       0      f0     0.0012
      8 C          -13.2889   -12.9268   -16.5271 C       0      f0     0.0086
      9 C          -12.7677   -14.5882   -12.6959 C       0      f0     0.0119
     10 C          -12.2978   -13.2572   -12.4472 C       0      f0    -0.0054
     11 H          -11.8552   -12.5643   -13.2992 H       0      f0     0.0175
     12 H          -12.7727   -15.0910   -14.1385 H       0      f0     0.0253
     13 H          -10.7648   -11.9852   -15.2759 H       0      f0     0.0200
     14 O           -9.4490   -15.6705   -12.3577 O      66     f66    -0.4229
     15 C           -8.8034   -14.2754   -12.5454 C      66     f66     0.1650
     16 C           -8.7518   -16.0264   -16.0042 C       0      f0    -0.0045
     17 C           -8.2834   -15.0670   -13.6687 C      66     f66     0.0539
     18 C           -8.5285   -15.6150   -14.7223 C       0      f0     0.0204
     19 H           -7.8314   -13.0825   -16.8734 H       0      f0     0.0191
     20 H           -6.0800   -14.5124   -13.6867 H       0      f0     0.0369
     21 C           -5.7515   -12.3696   -14.4106 C       0      f0     0.0120
     22 C           -5.3501   -14.1193   -12.7909 C       0      f0     0.0450
     23 H           -5.8747   -12.2715   -12.4362 H       0      f0     0.0147
     24 C           -5.2438   -12.7513   -13.0666 C       0      f0    -0.0237
     25 C           -4.5930    16.7280   -14.8247 C      67     f67     0.1681
     26 H           -4.2034   -14.1558    16.2799 H       0      f0     0.0314
     27 O           -3.8879   -15.3951   -14.8368 O      67     f67    -0.4210
     28 C           -2.8711   -16.5993   -15.0521 C      67     f67     0.1969
     29 O           -2.3568   -15.4652   -12.2764 O       0      f0    -0.4377
     30 H           -1.0343   -13.3360   -16.2045 H       0      f0     0.0213
     31 H           -1.3427   -13.5993   -11.5675 H       0      f0     0.0259
     32 H           -0.4713   -12.7928   -14.3314 H       0      f0     0.0175
     33 C           -0.4936   -13.4754   -15.2359 C       0      f0    -0.0149
     34 C            0.8782   -13.8474   -15.3104 C       0      f0     0.0193
     35 C            1.7815   -11.7507   -14.1818 C       0      f0    -0.0089
     36 C            1.9603   -13.9789   -14.5863 C       0      f0    -0.0051
     37 C            2.6807   -16.0825   -14.0884 C       0      f0     0.0190
     38 C            2.5408   -16.7101   -12.8427 C       0      f0    -0.0284
     39 C            2.6619   -13.1082   -13.9140 C       0      f0    -0.0093
     40 C            3.1124   -15.2520   -14.8350 C       0      f0    -0.0165
     41 H            3.7895   -14.4805   -15.1966 H       0      f0     0.0513
     42 C            3.9017   -13.3117   -13.1309 C       0      f0    -0.0062
     43 C            5.2075   -12.8820   -13.5460 C      68     f68     0.0114
     44 C            6.1166   -11.9137   -14.2150 C      68     f68     0.0017
     45 C            6.3621   -12.2801   -12.7970 C      68     f68    -0.0043
     46 C            9.9464   -12.1592   -16.7610 C       0      f0    -0.0104
     47 H            9.9433   -14.8578   -13.7437 H       0      f0     0.0250
     48 H           10.9802   -13.8405   -15.8803 H       0      f0     0.0206
     49 C           10.4406   -13.2399   -16.4920 C       0      f0    -0.0180
     50 C           10.9291   -15.1742   -13.5368 C       0      f0    -0.0225
     51 C           11.2677   -16.6901   -13.8647 C       0      f0     0.0007
     52 H           11.9355   -12.9286   -13.1641 H       0      f0     0.0295
     53 C           11.9448   -16.5764   -15.0805 C       0      f0    -0.0077
     54 C           11.9378   -14.1414   -13.2144 C       0      f0    -0.0162
     55 C           12.7747   -16.1894   -16.1551 C       0      f0    -0.0233
     56 H           12.7698   -13.0216   -15.2061 H       0      f0     0.0330
     57 C           13.3668   -14.2636   -12.8266 C       0      f0    -0.0206
     58 C           13.2713   -15.0981   -16.3339 C      69     f69    -0.0016
     59 C           13.4374   -13.7176   -15.9115 C      69     f69    -0.0589
     60 H           13.7250   -15.0240   -13.5328 H       0      f0     0.0168
     61 C           13.9705   -13.1754   -12.3616 C       0      f0    -0.0033
     62 C           15.1102   -12.2742   -12.3686 C       0      f0     0.0019
     63 H           15.0909   -14.3723   -14.1988 H       0      f0     0.0092
     64 C           15.1613   -13.3470   -15.9199 C       0      f0     0.2358
     65 C           15.9231   -14.2909   -15.0718 C       0      f0    -0.0272
     66 H           15.9363   -12.5552   -13.1277 H       0      f0     0.0417
     67 O           16.1938   -12.3293   -16.0417 O       0      f0    -0.4556
     68 H          -16.2764   -10.1714   -14.0824 H       0      f0     0.2933
     69 O           16.3999    -9.6577   -13.2887 O       0      f0    -0.6614
     70 H          -15.3864   -10.5416   -16.4006 H       0      f0     0.0679
     71 C          -15.1050    -9.6035   -12.7438 C       0      f0     0.2573
     72 C          -14.5483    -7.7137   -16.4845 C       0      f0     0.0112
     73 C          -14.3440   -10.4871   -15.9733 C       0      f0    -0.0564
     74 H          -14.7494   -11.2444   -15.1795 H       0      f0     0.0516
     75 C          -13.9371    -7.3574   -15.1150 C       0      f0    -0.0124
     76 C          -13.3331   -11.4994   -16.7278 C       0      f0     0.0100
     77 H          -14.5322    -9.4737   -15.4627 H       0      f0     0.0186
     78 H          -12.8223   -10.9002   -12.8019 H       0      f0     0.0204
     79 C          -12.7873    -9.9023   -12.9124 C       0      f0    -0.0268
     80 C          -12.6934    -7.8530   -14.9921 C       0      f0     0.0210
     81 C          -11.8846    -9.6598   -13.6934 C       0      f0    -0.0032
     82 C          -11.2870    -8.5382   -14.6040 C       0      f0    -0.0348
     83 H          -10.8193    -8.8551   -15.6897 H       0      f0     0.0205
     84 C          -10.8774   -10.8078    16.9597 C       0      f0    -0.0223
     85 H          -10.4592    -8.1258   -13.9894 H       0      f0     0.0184
     86 C          -10.2625   -11.5519   -16.0524 C       0      f0    -0.0210
     87 H          -10.2398   -10.1557    16.2120 H       0      f0     0.0161
     88 C           -9.5569   -10.4592   -15.2612 C       0      f0    -0.0232
     89 H           -9.3299    -9.4372   -15.7355 H       0      f0     0.0174
     90 C           -8.9665   -11.1796   -14.2045 C       0      f0    -0.0056
     91 H           -8.0607    -6.9717   -14.4496 H       0      f0     0.0176
     92 C           -8.4696   -11.5170   -13.0633 C       0      f0    -0.0192
     93 H           -7.5523    -9.7563   -15.5213 H       0      f0     0.0190
     94 C           -7.0994   -10.6309   -15.8412 C       0      f0    -0.0185
     95 C           -6.6534    -7.7035   -15.4047 C       0      f0     0.2926
     96 C           -6.5275   -11.6112   -14.9657 C       0      f0    -0.0130
     97 H           -7.2275    -7.4240   -13.2381 H       0      f0     0.0155
     98 C           -6.2516    -7.6812   -13.8314 C       0      f0    -0.0375
     99 O           -5.4432    -7.7180   -16.1801 O       0      f0    -0.6463
    100 H           -4.9176    -8.5821   -16.4585 H       0      f0     0.2562
    101 C           -4.9301    -8.0761   -13.3682 C       0      f0     0.0359
    102 C           -3.7338    -7.3214   -13.6751 C       0      f0     0.0445
    103 H           -2.7825    -9.6839   -16.0368 H       0      f0     0.0169
    104 C           -2.4818    -9.8260    16.8473 C       0      f0    -0.0366
    105 C           -2.2302    -7.4223   -13.8927 C       0      f0    -0.0015
    106 H           -0.4493    -8.9648   -15.7743 H       0      f0     0.0203
    107 C            0.1559    -8.1039   -15.2641 C       0      f0    -0.0436
    108 C            0.9626   -11.0257   -14.1271 C       0      f0    -0.0360
    109 H            1.9830   -10.1532   -14.7986 H       0      f0     0.0123
    110 C            1.5324    -7.8794   -15.4626 C       0      f0    -0.0006
    111 C            2.7668    -7.4743   -15.9328 C       0      f0    -0.0242
    112 H            3.3674    -9.3115   -15.0035 H       0      f0     0.0195
    113 C            3.7895    -8.2625   -14.9998 C       0      f0    -0.0208
    114 C            4.8479    -7.9794   -14.2660 C       0      f0     0.0039
    115 H            5.3445    -7.9244   -11.9420 H       0      f0     0.0774
    116 C            5.3477    -8.5225   -12.9606 C       0      f0    -0.0198
    117 C            6.5122    -9.4166   -12.8217 C       0      f0     0.0142
    118 C            6.8508   -11.5193   -15.5106 C       0      f0     0.0038
    119 C            7.7477   -10.9898   -16.4327 C      70     f70    -0.0008
    120 C            7.6523   -10.0288   -12.5475 C       0      f0     0.0131
    121 C            8.5554    -9.9493   -16.0505 C      70     f70    -0.0447
    122 C            8.5004   -10.4204   -13.6396 C      71     f71     0.0642
    123 C            9.2609   -10.1373   -14.8016 C      71     f71     0.1357
    124 H           10.1074   -11.6794   -15.5995 H       0      f0     0.0305
    125 O           10.3518   -10.0243   -13.3554 O      71     f71    -0.4668
    126 H           14.0337   -10.5176   -16.0424 H       0      f0     0.0590
    127 C           14.0711    -9.6975   -16.8605 C       0      f0     0.0015
    128 H           15.1492    -7.0784   -14.5911 H       0      f0     0.0181
    129 C           15.2901    -8.1224   -15.1651 C       0      f0     0.0270
    130 C           15.1657    -8.9236   -15.8890 C       0      f0     0.0079
    131 H           15.0241    -8.2801   -12.4142 H       0      f0     0.0931
    132 H          -15.7795    -2.9725   -13.8960 H       0      f0     0.0482
    133 C          -15.7545    -6.0204   -12.7394 C       5      f5    -0.0220
    134 C          -15.0671    -3.6949   -16.7533 C      58     f58    -0.0251
    135 H          -14.6003    -3.9656   -15.8201 H       0      f0     0.0373
    136 H          -15.1731    -2.3969   -12.0240 H       0      f0     0.0942
    137 H          -15.0443    -7.1996   -14.2687 H       0      f0     0.0260
    138 C          -14.5227    -5.7025   -13.1561 C       5      f5     0.0043
    139 H          -14.2776    -5.5146   -15.5617 H       0      f0     0.0433
    140 C          -14.0801    -5.2518   -14.5661 C       5      f5    -0.0447
    141 C          -13.3359    -5.8323   -12.5217 C       5      f5    -0.0173
    142 C          -13.5194    -4.1417   -13.8821 C       5      f5     0.0750
    143 C          -12.8875    -4.6836   -12.5369 C       5      f5     0.0494
    144 C          -10.5021    -3.5202   -14.8282 C       0      f0     0.0294
    145 C           -9.4793    -2.3323   -14.6755 C       0      f0    -0.0185
    146 C           -9.9133    -5.0073   -15.2335 C       0      f0    -0.0205
    147 C           -9.7091    -5.5685   -16.0898 C       0      f0     0.0487
    148 C           -8.7006    -6.7908   -16.4968 C       0      f0     0.0123
    149 C           -8.1643    -2.5398   -15.1371 C       0      f0    -0.0159
    150 C           -8.0958    -7.4173   -15.3995 C       0      f0    -0.0958
    151 H           -7.7169    -3.8914   -11.5747 H       0      f0     0.0134
    152 C           -3.2824    -2.6348    16.9339 C       0      f0    -0.0050
    153 C           -1.7983    -2.9139   -15.5347 C       0      f0     0.0003
    154 C           -1.5526    -7.1996   -12.6413 C       0      f0    -0.0337
    155 C           -1.1060    -4.1981   -15.7892 C       0      f0     0.0076
    156 C           -0.7197    -4.9516   -16.7039 C       0      f0    -0.0071
    157 H           -0.7446    -6.8223   -12.0055 H       0      f0     0.0344
    158 H           -0.3600    -7.2189   -15.0650 H       0      f0     0.0314
    159 H            1.6416    -3.6137   -16.2782 H       0      f0     0.0184
    160 C            1.5351    -2.8528   -15.5704 C       0      f0    -0.0271
    161 H            2.3234    -7.0239   -13.7492 H       0      f0     0.0209
    162 C            1.8445    -6.8501   -12.7746 C      17     f17    -0.0214
    163 H            2.6956    -6.5586   -16.1229 H       0      f0     0.0223
    164 H            4.3228    -4.3577   -12.1648 H       0      f0     0.0254
    165 C            4.8315    -5.9341   -16.2547 C       0      f0    -0.0134
    166 C            4.9741    -3.4566   -12.2134 C       0      f0    -0.0100
    167 C            5.3039    -6.6221   -15.0577 C       0      f0    -0.0123
    168 C            5.7541    -3.3722   -13.3395 C       0      f0    -0.0233
    169 C            5.9761    -3.1008   -16.8530 C      72     f72     0.0057
    170 C            6.2275    -5.8521   -14.4414 C       0      f0     0.0122
    171 C            6.4060    -4.4431   -14.2942 C       0      f0     0.0140
    172 C            6.9652    -4.2040   -16.8417 C      72     f72    -0.0019
    173 C            6.5793    -3.7189   -15.4614 C      72     f72     0.0016
    174 H            9.1701    -4.3642   -16.2991 H       0      f0     0.0647
    175 C           10.4243    -2.7066   -12.0761 C       0      f0     0.3240
    176 O           10.3988    -3.0757   -13.2543 O       0      f0    -0.4707
    177 C           12.3275    -5.4793   -16.7139 C       0      f0     0.0399
    178 H           12.8238    -3.3341   -13.6015 H       0      f0     0.0755
    179 C           13.0613    -3.1786   -16.1886 C       0      f0    -0.0051
    180 C           13.6022    -5.7189   -16.3699 C       0      f0    -0.0031
    181 C           13.4170    -4.3603   -15.4107 C       0      f0     0.0049
    182 C           13.6502    -4.0642   -13.9493 C       0      f0    -0.0068
    183 C           14.5689    -3.1374   -13.3168 C       0      f0    -0.0512
    184 H           15.9592    -5.9680   -13.3413 H       0      f0     0.0131
    185 C          -15.8262     0.3797   -12.9495 C       2      f2    -0.0584
    186 C          -15.9149    -2.5045   -12.9169 C       2      f2    -0.0767
    187 H          -15.1023     0.5181   -16.3091 H       0      f0    -0.0091
    188 C          -15.4335     1.8840   -12.7896 C       2      f2     0.0402
    189 C          -15.3703    -0.8174   -13.0104 C       2      f2     0.0659
    190 O          -14.1642    -0.9906   -15.3584 O       0      f0    -0.4954
    191 C          -14.0874    -0.1177   -16.2458 C       0      f0     0.3395
    192 C          -13.9672    -0.5412   -12.6818 C       2      f2     0.2337
    193 C          -14.0980     2.0227   -12.9670 C       2      f2    -0.0138
    194 C          -13.5267     1.7833   -16.9365 C       0      f0    -0.0288
    195 C          -13.3870     0.6156   -13.0289 C       2      f2    -0.0461
    196 O          -13.1495    -1.8332   -12.1044 O       0      f0    -0.6566
    197 C          -12.9459     0.8030   -16.2802 C       0      f0    -0.0536
    198 H          -12.3092     0.8924   -13.1431 H       0      f0     0.0531
    199 H          -11.1718     0.3202   -15.3163 H       0      f0     0.0308
    200 C          -11.7746     0.2890   -16.2185 C       0      f0     0.0203
    201 C          -10.9188     2.3901   -12.2059 C       0      f0     0.3560
    202 C          -10.5518     0.7539   -16.9521 C       0      f0    -0.0040
    203 H           -9.9498    -1.4553   -14.8656 H       0      f0     0.0392
    204 O          -10.0118     1.6047   -12.0116 O       0      f0    -0.5235
    205 H           -9.6004     0.7042   -15.1789 H       0      f0     0.0517
    206 C           -9.5375     0.1152   -16.1924 C       0      f0     0.0086
    207 C           -8.0912    -0.5471   -16.4401 C       0      f0     0.0094
    208 C           -7.5405    -1.9717   -16.3601 C       0      f0    -0.0237
    209 H           -7.8019    -2.4055   -13.8265 H       0      f0     0.0198
    210 H           -7.5343     2.2799   -15.0549 H       0      f0     0.3018
    211 H           -7.3426     0.0240   -16.5922 H       0      f0     0.0561
    212 C           -6.4237     2.5033   -16.9346 C       0      f0     0.2368
    213 C           -5.5858     1.8805   -12.7939 C       0      f0    -0.0039
    214 C           -5.3325     1.4238   -16.6484 C       0      f0    -0.0276
    215 C           -4.6729     2.0731   -15.6482 C       0      f0    -0.0030
    216 C           -3.7349     2.3315   -14.5418 C       0      f0    -0.0005
    217 C           -3.3497     0.2123   -16.7090 C       0      f0     0.0022
    218 C           -2.6217    -1.7938   -16.1648 C       0      f0    -0.0007
    219 C           -2.4298     2.6324   -13.8956 C       0      f0    -0.0231
    220 C           -2.2549    -0.4370   -16.4795 C       0      f0    -0.0299
    221 H           -1.7312    -0.1410   -15.7061 H       0      f0     0.0253
    222 C           -1.1605     0.2676   -13.9456 C       0      f0     0.0040
    223 C           -1.5550     1.4750   -14.4756 C       0      f0    -0.0191
    224 C           -1.3343    -1.9271   -14.4749 C       0      f0     0.0037
    225 C           -0.8854    -1.1265   -13.6608 C       0      f0    -0.0168
    226 H           -0.7694     2.3564   -14.6212 H       0      f0     0.0231
    227 C            0.4200    -0.9888   -12.9405 C      73     f73     0.1058
    228 C            1.4149    -1.5239   -15.8153 C       0      f0    -0.0036
    229 C            1.5923    -0.4687   -12.8615 C      73     f73     0.1686
    230 C            1.3318    -0.6772   -16.8687 C       0      f0    -0.0026
    231 C            2.0148     0.7832   -13.8725 C       0      f0    -0.0343
    232 C            1.9313     0.8598   -15.1718 C       0      f0     0.0057
    233 C            2.2673     1.1143   -16.5530 C       0      f0     0.0001
    234 C            2.5266     2.1678   -13.6273 C       0      f0     0.0163
    235 H            5.7342     2.3860   -14.3667 H       0      f0     0.0220
    236 C            6.0558    -0.5245   -16.8615 C       0      f0    -0.0028
    237 H            6.4426    -2.6042   -13.2385 H       0      f0     0.0332
    238 C            6.7665    -0.1111   -15.8108 C       0      f0     0.0007
    239 C            7.5951     0.0597   -12.5652 C       0      f0    -0.0036
    240 C            7.5827     0.2929   -14.7810 C       0      f0    -0.0115
    241 C            8.5535    -0.0847   -13.8498 C       0      f0     0.0217
    242 C            9.8592     0.4022   -13.6991 C       0      f0    -0.0065
    243 H           10.5899     0.6145   -14.5206 H       0      f0     0.0263
    244 C           10.6672     1.3875   -12.8561 C       0      f0    -0.0228
    245 H           11.9910     1.1240   -12.8958 H       0      f0     0.0182
    246 H           11.9461    -0.4037   -12.2189 H       0      f0     0.0309
    247 H           12.4353    -0.6250   -15.2925 H       0      f0     0.0348
    248 C           12.3860    -0.7303   -16.4360 C       0      f0    -0.0286
    249 C           12.5845    -2.1516   -16.8885 C       0      f0     0.0284
    250 H           13.9622     1.3679   -12.6338 H       0      f0     0.0620
    251 C           13.6629     1.8861   -16.1891 C       0      f0    -0.0888
    252 C           14.8764     1.4237   -13.2430 C       2      f2    -0.0727
    253 C           15.5806     0.2476   -12.9990 C       2      f2     0.2737
    254 C           15.4948    -2.3887   -12.7532 C       2      f2     0.2202
    255 C          -16.0220     3.1594   -13.0268 C       2      f2    -0.0239
    256 H          -16.0247     4.4232   -12.9204 H       0      f0     0.0079
    257 H          -14.6678     1.9218   -16.6603 H       0      f0     0.0178
    258 C          -13.9587     6.5492   -16.4983 C      74     f74     0.1864
    259 C          -14.1351     6.6727   -15.0728 C       0      f0    -0.0688
    260 C          -13.7757     6.5504   -13.8162 C       0      f0     0.0057
    261 H          -11.6048     6.9892   -14.1605 H       0      f0     0.0208
    262 C          -10.5881     6.7548   -13.8794 C       0      f0    -0.0228
    263 C          -10.0582     5.5256   -13.4013 C       0      f0     0.0099
    264 C           -9.4509     4.6419   -12.5804 C       0      f0    -0.0177
    265 C           -9.2059     6.9453   -14.4852 C       0      f0    -0.0109
    266 H           -8.9337     6.0172   -15.4366 H       0      f0     0.0324
    267 C           -8.4647     3.6512   -12.3317 C       0      f0     0.0436
    268 O           -7.6717     2.6049   -15.9169 O       0      f0    -0.6222
    269 C           -7.3029     3.7780   -12.9862 C       0      f0     0.0011
    270 C           -6.9109     7.0740   -12.7656 C       0      f0     0.0205
    271 C           -6.0326     3.8733   -13.6498 C       0      f0     0.0044
    272 C           -6.1873     6.4118   -14.1136 C       0      f0    -0.0206
    273 C           -5.9715     5.0227   -14.6610 C       0      f0     0.0213
    274 H           -5.2891     7.2317   -13.9627 H       0      f0     0.0192
    275 C           -5.3802     5.0051   -15.9484 C       0      f0    -0.0148
    276 C           -5.0175     2.9068   -13.6764 C       0      f0    -0.0052
    277 H           -5.3028     3.9100   -16.0197 H       0      f0     0.0285
    278 C           -2.7575     6.2265   -12.5012 C       0      f0    -0.0023
    279 H           -2.0629     2.7032   -12.8985 H       0      f0     0.0279
    280 C           -1.9630     6.4934   -14.8164 C       0      f0    -0.0037
    281 C           -2.0806     7.0016   -13.4121 C       0      f0    -0.0189
    282 C           -0.9328     4.5303   -16.2261 C       0      f0    -0.0295
    283 H           -1.2149     3.4437   -16.0726 H       0      f0     0.0211
    284 C           -0.7701     5.7542   -15.3836 C       0      f0     0.0055
    285 C            0.8345     7.0455   -13.5300 C       0      f0    -0.0018
    286 C            1.6457     5.8657   -13.9293 C       0      f0    -0.0013
    287 H            1.8846     6.2523   -16.3149 H       0      f0     0.0192
    288 C            1.6404     5.5808   -15.5063 C       0      f0    -0.0143
    289 C            2.2957     3.9803   -15.6720 C       0      f0     0.0023
    290 C            3.1635     3.2168   -16.0462 C       0      f0     0.0006
    291 C            3.5593     2.8248   -12.8845 C       0      f0    -0.0063
    292 C            4.4980     3.1860   -12.3079 C       0      f0     0.0003
    293 C            4.6493     2.8421   -16.3881 C       0      f0     0.0047
    294 C            5.1127     2.9814   -14.9949 C       0      f0    -0.0204
    295 C            5.1976     5.1177   -16.4732 C       0      f0    -0.0013
    296 C            5.7070     4.4951   -15.4577 C       0      f0    -0.0040
    297 C            6.0588     5.5827   -12.9072 C      26     f26     0.0090
    298 C            6.1691     5.4616   -14.3128 C      26     f26    -0.0020
    299 C            6.5530     6.8433   -12.0321 C      26     f26    -0.0459
    300 C            7.4452     5.9202   -14.8935 C      26     f26     0.0013
    301 C            8.0208     6.8971   -12.6555 C      26     f26    -0.0179
    302 C            7.9650     5.4239   -16.1458 C       0      f0    -0.0304
    303 C            8.3537     6.5669   -13.9823 C      26     f26     0.0212
    304 C            8.9294     6.3742   -16.8108 C       0      f0     0.0047
    305 C           10.4012     3.9286   -16.3863 C       0      f0    -0.0208
    306 C           11.2048     3.9737   -15.3626 C       0      f0     0.0004
    307 H           11.5422     5.9357    16.9603 H       0      f0     0.0285
    308 C           11.9839     6.6235   -13.4817 C       0      f0     0.0372
    309 C           12.3302     5.1861   -13.2231 C       0      f0     0.0116
    310 C           12.2659     4.4977   -14.4872 C       0      f0    -0.0119
    311 C           13.4345     3.5774   -14.2301 C       0      f0    -0.0146
    312 C           13.6421     2.8294   -15.1215 C       0      f0     0.0198
    313 H           13.7559     6.6388   -11.7964 H       0      f0     0.0241
    314 H           13.2960     7.0581   -16.5169 H       0      f0     0.0159
    315 C           14.3672     7.0070   -16.6299 C       0      f0    -0.0127
    316 C           14.4216     3.8109   -12.9743 C       0      f0    -0.0109
    317 H           14.7899     4.8858   -12.7921 H       0      f0     0.0107
    318 C           15.4948     2.8351   -13.4656 C       2      f2     0.0142
    319 H           16.0300     5.5816   -16.3927 H       0      f0     0.0290
    320 H          -16.2610    12.0911   -12.9070 H       0      f0     0.0322
    321 H          -15.5189    10.4591   -14.4199 H       0      f0     0.0178
    322 C          -15.0162     9.4843   -14.7340 C       0      f0    -0.0137
    323 H          -13.6057     8.5376   -16.2103 H       0      f0     0.0350
    324 C          -14.0836     9.0482   -13.5953 C       0      f0     0.0050
    325 C          -14.0868     9.4364   -15.8155 C       0      f0    -0.0064
    326 C          -13.6813     7.5584   -12.8233 C       0      f0    -0.0304
    327 C          -13.9136    11.7572   -15.3926 C       0      f0    -0.0096
    328 C          -13.8972    10.7957   -16.4476 C       0      f0     0.0031
    329 C          -12.8683     9.3160   -13.5962 C       0      f0    -0.0091
    330 H          -11.5942     8.9727   -16.2580 H       0      f0     0.0206
    331 C          -11.4212     9.7864   -13.8601 C       0      f0    -0.0091
    332 C          -11.5319    11.9841   -12.3655 C       0      f0    -0.0233
    333 C          -11.0417    10.7240   -12.5278 C       0      f0    -0.0056
    334 C          -10.5526     9.1330   -14.4320 C       0      f0    -0.0115
    335 H           -8.3894    10.8726   -15.3491 H       0      f0     0.0203
    336 C           -9.4032     8.5673   -14.8851 C       0      f0    -0.0048
    337 H           -8.5660     9.8133   -16.9536 H       0      f0     0.0189
    338 C           -8.5632     9.8597   -15.6741 C       0      f0    -0.0308
    339 C           -7.2784     8.4040   -12.9916 C       0      f0    -0.0553
    340 C           -7.1349     9.6668   -15.3808 C       0      f0    -0.0232
    341 C           -6.6175     8.9431   -14.2538 C       0      f0     0.0033
    342 H           -6.6420     9.8266   -16.3303 H       0      f0     0.0203
    343 H           -5.3559     8.8923   -14.5716 H       0      f0     0.0149
    344 C           -5.1251    11.5270   -16.2169 C       0      f0     0.0272
    345 C           -4.7182    11.0385   -14.9867 C       0      f0    -0.0334
    346 H           -4.5750     8.3290   -16.9713 H       0      f0     0.0198
    347 H           -4.0462    10.3467   -15.0551 H       0      f0     0.0210
    348 H           -2.6470     7.9132   -13.0020 H       0      f0     0.0248
    349 C           -1.4385     9.0336   -16.6818 C      75     f75    -0.0052
    350 C           -1.4013    11.4156   -13.7129 C       0      f0    -0.0012
    351 C           -0.4829    10.8547   -14.5123 C       0      f0    -0.0213
    352 H           -0.8283     9.7251   -14.5550 H       0      f0     0.0176
    353 H            0.1224     8.6487   -13.4762 H       0      f0     0.0211
    354 C            0.3126     7.9171   -12.5563 C       0      f0    -0.0196
    355 C            0.5671    11.9564   -14.6601 C      36     f36    -0.0017
    356 C            1.7729    11.1177   -12.6005 C       0      f0    -0.0214
    357 C            1.8018    12.0445   -13.7635 C      36     f36    -0.0027
    358 C            2.4343     9.9904   -13.0368 C       0      f0    -0.0026
    359 C            3.1367     8.9051   -13.5454 C       0      f0    -0.0367
    360 H            3.2639     8.2806   -14.7017 H       0      f0     0.0171
    361 H            3.9917     8.1097   -16.6555 H       0      f0     0.0145
    362 H            3.4654     8.0797   -12.9636 H       0      f0     0.0167
    363 C            4.4758    10.6203   -16.7273 C       0      f0    -0.0216
    364 H            4.9060    10.5006   -13.0041 H       0      f0     0.0177
    365 H            3.9602    10.5113   -15.5236 H       0      f0     0.0204
    366 C            5.5159    11.0701   -13.5831 C       3      f3    -0.0182
    367 H            6.5087     7.7346   -12.6616 H       0      f0     0.0237
    368 C            6.7810    10.5161   -13.3422 C       3      f3    -0.0416
    369 H            6.4405     9.4987   -13.0798 H       0      f0     0.0361
    370 C            7.8639    11.0886   -13.9443 C       3      f3     0.1904
    371 H            8.6576     8.4566   -16.0885 H       0      f0     0.0660
    372 C            8.5667     7.7524   -16.9345 C       0      f0    -0.0235
    373 O            8.9654    10.1266   -14.2736 O       3      f3    -0.4805
    374 H            9.3492     6.3814   -14.3327 H       0      f0     0.0396
    375 C           10.1420    11.6581   -15.6805 C       3      f3     0.1825
    376 C           10.2739    10.4728   -15.0516 C       3      f3     0.1808
    377 H           11.0167     8.3387   -12.8661 H       0      f0     0.0823
    378 C           11.4547    11.5618   -16.5147 C       3      f3    -0.0319
    379 C           11.4800     9.6380   -15.4880 C       3      f3    -0.0207
    380 C           11.5773     7.8011   -13.5765 C       0      f0    -0.0056
    381 C           11.9162    10.2846   -16.7042 C       3      f3     0.0216
    382 C           12.0527     8.7635   -14.6047 C       0      f0    -0.0034
    383 C           12.8083     9.9735   -12.3861 C       6      f6    -0.0326
    384 H           13.1938     8.9996   -14.7311 H       0      f0     0.0354
    385 C           13.8404     9.9291   -13.4101 C       6      f6     0.2084
    386 O           14.2021    11.1303   -14.3743 O       6      f6    -0.4687
    387 C           14.4205     8.6738   -13.4762 C       6      f6    -0.0574
    388 C           15.3045    10.5212   -15.4154 C       6      f6     0.1677
    389 C           15.4294     8.1835   -14.4354 C       6      f6     0.0047
    390 C           15.3129     8.9831   -15.5521 C       6      f6    -0.0322
    391 C           15.6279    10.9798    16.9758 C       6      f6    -0.0227
    392 H           15.9945     7.2646   -14.6337 H       0      f0     0.0172
    393 H           16.0929    11.2255   -15.2637 H       0      f0     0.0173
    394 C           15.8782     8.7481   -16.9006 C       6      f6     0.0160
    395 H          -16.1948    16.1209   -14.1177 H       0      f0     0.0179
    396 C          -15.4494    16.0761   -13.4395 C       0      f0    -0.0175
    397 C          -15.3492    12.8928   -13.6123 C       0      f0    -0.0108
    398 C          -14.8404    13.7189   -12.4999 C       0      f0    -0.0021
    399 C          -14.5128    14.9207   -13.2198 C       0      f0     0.0063
    400 C          -14.5642    12.4037   -14.7156 C       0      f0    -0.0018
    401 H          -14.0753    16.0166   -16.5118 H       0      f0     0.0180
    402 H          -13.5802    15.0338   -15.1332 H       0      f0     0.0203
    403 C          -13.2261    15.2107   -14.1217 C       0      f0    -0.0193
    404 C          -12.1174    14.8691   -13.6582 C       0      f0     0.0191
    405 H          -10.9474    13.0009   -12.0275 H       0      f0     0.0252
    406 C          -11.1746    13.1410   -16.2256 C      37     f37     0.1488
    407 C          -10.8777    14.6236   -13.0041 C       0      f0    -0.0558
    408 H          -10.3713    15.3926   -12.7398 H       0      f0     0.0660
    409 H          -10.2046    13.9348   -13.3259 H       0      f0     0.0230
    410 C           -9.9790    12.7310   -15.7507 C      37     f37    -0.0164
    411 H          -10.1031    12.4166   -14.6089 H       0      f0     0.0085
    412 H           -9.8952    16.1765   -16.2825 H       0      f0     0.0374
    413 C           -8.7751    12.6979   -16.3739 C      37     f37    -0.0518
    414 C           -8.9194    16.0385   -15.8568 C       0      f0     0.0047
    415 H           -7.8740    12.1736   -16.2096 H       0      f0     0.0301
    416 H           -7.5205    16.2362   -13.6776 H       0      f0     0.0390
    417 C           -7.6105    15.3260   -16.2640 C       0      f0    -0.0426
    418 H           -7.7220    12.6792   -13.6267 H       0      f0     0.0223
    419 H           -6.3957    15.3023   -12.4123 H       0      f0     0.0214
    420 C           -6.7800    15.4960   -14.3038 C       0      f0     0.0011
    421 C           -6.9372    12.9016   -12.7934 C      38     f38    -0.0106
    422 C           -6.7629    14.0808   -14.9096 C       0      f0    -0.0275
    423 C           -5.6376    16.1070   -14.5998 C       0      f0    -0.0548
    424 H           -5.9591    13.9523   -15.4869 H       0      f0     0.0586
    425 C           -5.5704    12.7375   -12.7285 C      38     f38     0.0176
    426 H           -5.4082    13.2688   -13.7879 H       0      f0     0.0117
    427 C           -3.1949    14.3523   -12.3501 C       0      f0     0.0112
    428 H           -3.0056    15.5780   -16.3714 H       0      f0     0.0301
    429 C           -2.1611    16.0097   -15.8738 C       0      f0    -0.0470
    430 C           -2.0961    14.1752   -13.1418 C       0      f0     0.0013
    431 C           -1.6854    12.5209   -13.4701 C       0      f0    -0.0050
    432 H           -1.0315    15.9016   -12.7440 H       0      f0     0.0749
    433 C           -0.9741    14.8485   -12.7034 C       0      f0    -0.0264
    434 C            0.5709    13.0048    16.8598 C       0      f0     0.0088
    435 C            0.5257    13.1405   -15.5462 C      36     f36     0.0040
    436 H            1.7475    16.5393   -12.1980 H       0      f0     0.0329
    437 C            1.9835    13.8206   -15.1120 C      36     f36    -0.0315
    438 H            2.1792    14.9086   -14.8996 H       0      f0     0.0284
    439 C            2.0647    13.3308   -13.6116 C      36     f36    -0.0081
    440 H            2.9005    13.3909   -15.6708 H       0      f0     0.0236
    441 C            2.6088    13.9344   -12.3508 C       0      f0    -0.0133
    442 C            3.7850    16.1755   -12.7897 C       0      f0    -0.0016
    443 H            4.6730    12.9246   -13.7872 H       0      f0     0.0191
    444 C            5.6091    12.4170   -13.5229 C       3      f3    -0.0143
    445 C            5.5861    13.6616   -16.7041 C       0      f0    -0.0083
    446 C            6.1508    13.2007   -15.5942 C       0      f0     0.0483
    447 C            6.5617    12.6308   -14.4672 C       3      f3    -0.0551
    448 C            8.0086    12.3693   -14.3833 C       3      f3     0.1915
    449 H            9.2025    11.8895   -12.8475 H       0      f0     0.0412
    450 O            8.9811    12.7380   -15.4543 O       3      f3    -0.4594
    451 C           11.2014    15.6438   -13.0076 C       0      f0    -0.0128
    452 C           11.9982    14.6586   -13.7277 C       0      f0    -0.0025
    453 C           12.0660    12.8321    16.9356 C       0      f0    -0.0062
    454 C           12.3508    13.3972   -13.0454 C       0      f0     0.0148
    455 H           12.5076    15.1234   -14.4657 H       0      f0     0.0223
    456 C           12.6988    12.2780   -12.4197 C       0      f0     0.0428
    457 C           13.3020    13.2444   -16.7303 C       0      f0     0.0198
    458 H           13.9975    14.3344   -14.9849 H       0      f0     0.0329
    459 C           14.5739    13.2001   -16.7103 C       0      f0     0.0180
    460 C           14.7910    14.0971   -15.6028 C       0      f0    -0.0116
    461 C          -16.3632   -16.0317    -8.4490 C       0      f0    -0.0239
    462 C          -15.4863   -14.8881    -8.3480 C       0      f0    -0.0075
    463 C          -14.3321   -16.1516   -11.5925 C       0      f0    -0.0167
    464 C          -13.9137   -16.4410    -8.0724 C       0      f0    -0.0190
    465 C          -13.9574   -14.9331    -8.1606 C       0      f0     0.0043
    466 C          -13.4715   -15.2150   -12.0297 C       0      f0     0.0030
    467 C          -12.9579   -13.9320    -8.7439 C      76     f76    -0.0026
    468 C          -12.9817   -12.5843   -11.2402 C       0      f0    -0.0031
    469 C          -12.6514   -13.0955    -9.7280 C      76     f76    -0.0044
    470 C          -12.6250   -12.4450    -8.2398 C      76     f76     0.0058
    471 H          -11.6574   -12.0482    -8.1353 H       0      f0     0.0833
    472 H          -10.6542   -14.5082    -9.5105 H       0      f0     0.0241
    473 C           -9.8380   -14.0410   -10.2947 C       0      f0     0.0032
    474 C           -9.1130   -13.2098   -11.6026 C       0      f0    -0.0292
    475 H           -9.2063   -14.8054   -10.1452 H       0      f0     0.0427
    476 H           -7.6134   -16.7534    -8.4614 H       0      f0     0.0010
    477 C           -7.5278   -12.0895    -7.5696 C       0      f0     0.0130
    478 H           -7.5021   -14.0949    -7.7480 H       0      f0     0.0151
    479 H           -7.3022   -14.5914   -11.0734 H       0      f0     0.0273
    480 C           -6.2284   -14.4479   -11.2284 C       0      f0    -0.0325
    481 C           -5.6768   -13.6949   -10.0358 C       0      f0    -0.0245
    482 H           -5.2093   -12.5990   -10.1098 H       0      f0     0.0309
    483 C           -5.2153   -14.6703    -7.6124 C      77     f77    -0.0082
    484 C           -4.9029   -14.6062    -9.1109 C      27     f27     0.0450
    485 H           -4.8901   -15.7529   -10.8882 H       0      f0     0.0538
    486 C           -4.6710   -15.9292    -9.6115 C      27     f27     0.0007
    487 C           -3.0741   -13.0589   -11.3573 C       0      f0     0.0061
    488 O           -2.3797   -12.5096    -8.3419 O       0      f0    -0.4141
    489 C           -2.2966   -14.2340   -12.1931 C       0      f0     0.3360
    490 H           -1.1658   -11.5441   -12.2962 H       0      f0     0.0116
    491 O           -0.5786   -15.7398    -9.0125 O      78     f78    -0.3408
    492 H            0.9515   -12.1426    -8.7801 H       0      f0     0.0557
    493 C            0.4790   -16.7297    -8.5199 C      78     f78     0.1408
    494 C            0.9174   -15.4178    -8.3098 C      78     f78     0.0997
    495 C            1.8584   -14.4547    -7.9699 C       0      f0    -0.0172
    496 H            3.2185   -14.3670   -11.2886 H       0      f0     0.0297
    497 C            3.6901   -13.6426   -11.6872 C       0      f0    -0.0136
    498 H            4.4734   -13.0391    -7.9681 H       0      f0     0.0173
    499 C            5.1761   -14.2790   -11.3482 C       0      f0    -0.0615
    500 C            5.4592   -13.3559    -7.9873 C       0      f0    -0.0223
    501 H            5.6316   -14.0059    -7.1085 H       0      f0     0.0308
    502 C            6.1078   -15.0945   -10.8947 C      79     f79     0.2003
    503 C            6.4049   -12.8315    -8.9807 C       0      f0     0.0123
    504 O            6.9201   -15.6929    -9.8017 O      79     f79    -0.4410
    505 H            7.5570   -11.7781   -11.1429 H       0      f0     0.0215
    506 C            7.7751   -15.7894   -11.1965 C      79     f79     0.1846
    507 C            7.7641   -13.0846    -8.6020 C       0      f0     0.0339
    508 H            8.5683   -15.1423    -6.9497 H       0      f0     0.0279
    509 C            8.7238   -16.3655   -11.4523 C       0      f0    -0.0709
    510 C            8.8069   -13.2078    -7.5829 C       0      f0    -0.0158
    511 C            9.3824   -15.7653    -7.4015 C       0      f0     0.0432
    512 C           10.0591    16.6212   -11.1479 C      80     f80     0.1828
    513 C           10.0170   -12.3973    -8.3445 C       0      f0    -0.0225
    514 C           10.5007   -15.1083    -7.7075 C       0      f0     0.0406
    515 C           10.5822   -12.0804   -11.7139 C       0      f0    -0.0399
    516 C           10.5141   -13.1970   -10.8545 C       0      f0    -0.0110
    517 C           10.5939   -13.3812    -9.1977 C       0      f0     0.0118
    518 H           11.2523   -13.8974   -10.8215 H       0      f0     0.0329
    519 C           11.3870   -14.3972    -8.2485 C       0      f0    -0.0197
    520 H           12.2951   -14.7688    -8.5931 H       0      f0     0.0385
    521 H          -15.3243    -8.3891    -8.3675 H       0      f0     0.0194
    522 C          -15.0853    -7.2275    -8.1205 C       0      f0    -0.0132
    523 H          -14.6788   -10.4348   -10.0096 H       0      f0     0.0229
    524 C          -14.5343    -7.6156   -11.3400 C       5      f5     0.0052
    525 C          -14.0790    -9.1330   -11.9536 C       0      f0    -0.0702
    526 C          -13.9663   -10.3926   -10.7948 C       0      f0    -0.0132
    527 C          -13.0721   -11.4195   -11.0747 C       0      f0    -0.0011
    528 C          -12.6572    -7.9365    -7.8766 C       0      f0     0.0386
    529 H          -12.3277    -7.7096   -11.3502 H       0      f0     0.0220
    530 H          -12.0402    -6.6551    -8.9909 H       0      f0     0.0140
    531 O          -10.8374   -10.4020    -7.1725 O       0      f0    -0.3454
    532 C           -9.9952   -10.7363    -9.9003 C       0      f0    -0.0213
    533 H           -9.2934    -9.3303    -8.1396 H       0      f0     0.0264
    534 C           -9.7666   -10.4070    -8.3980 C       0      f0     0.1615
    535 C           -8.6656   -10.6826   -10.5430 C       0      f0    -0.0271
    536 C           -8.7089   -11.8467   -11.5438 C       0      f0     0.0041
    537 C           -8.1650   -11.0440    -8.3241 C       0      f0    -0.0459
    538 H           -7.8720   -10.0049   -10.3345 H       0      f0     0.0147
    539 H           -7.6466   -10.3009    -7.9131 H       0      f0     0.0245
    540 H           -5.6259    -9.4098    -8.1318 H       0      f0     0.0148
    541 C           -4.8109    -9.2945    -7.3452 C       0      f0     0.0161
    542 C           -2.9023   -11.5602    -7.6691 C       0      f0     0.2897
    543 H           -2.8848    -9.7932   -11.3969 H       0      f0     0.0275
    544 C           -2.0489   -10.3951   -11.2566 C       0      f0    -0.0037
    545 C           -2.2445   -12.0170   -11.6229 C       0      f0    -0.0018
    546 H           -1.3961    -8.8761   -10.2293 H       0      f0     0.0344
    547 C           -0.9583    -9.7629   -10.5099 C       0      f0    -0.0226
    548 C            0.1667   -10.5305   -10.0666 C       0      f0     0.0206
    549 C            0.8011    -7.2975    -9.3373 C      17     f17    -0.0103
    550 C            1.1289   -11.3691    -9.5698 C       0      f0    -0.0164
    551 C            1.4971    -8.0588   -10.3516 C      17     f17    -0.0049
    552 H            1.3356   -12.4011   -11.6120 H       0      f0     0.0265
    553 C            1.8360   -11.8700   -10.7743 C       0      f0    -0.0195
    554 C            2.2521    -7.9052   -11.6665 C      17     f17    -0.0095
    555 H            2.7435    -8.7775   -12.0043 H       0      f0     0.0196
    556 C            3.2570   -11.8284   -10.4026 C       0      f0     0.0018
    557 H            4.4608   -11.2174    -8.8929 H       0      f0     0.0222
    558 C            4.3686   -11.6022    -9.7963 C       0      f0    -0.0193
    559 C            5.8239   -11.8837   -10.0768 C       0      f0     0.0011
    560 C            6.4999   -11.8702   -11.3211 C       0      f0    -0.0128
    561 O            6.8033    -7.5326   -10.0932 O       0      f0    -0.4742
    562 C            7.7517    -8.4118   -10.2577 C       0      f0     0.2845
    563 C            8.3716    -9.3756   -11.1640 C       0      f0    -0.0615
    564 H            8.4892    -7.6946    -9.4063 H       0      f0     0.0319
    565 H            8.8730   -10.2024   -10.7988 H       0      f0     0.0221
    566 C           10.9247   -10.5623   -12.0742 C       0      f0     0.2688
    567 C           11.7911   -10.2895   -11.2157 C       0      f0    -0.1367
    568 H           12.3515   -10.6679   -10.3645 H       0      f0     0.0342
    569 H           12.1096    -9.3146   -11.6359 H       0      f0     0.0675
    570 H           15.7724    -9.3807    -9.0837 H       0      f0     0.0121
    571 C           15.1702   -10.2446   -10.5824 C       0      f0     0.0124
    572 C           15.1288    -9.0789   -10.0206 C       0      f0    -0.0175
    573 C           15.0210    -8.1379   -11.1978 C       0      f0     0.0028
    574 C           14.8753   -11.2268   -11.4007 C       0      f0     0.0351
    575 C           16.2701    -5.4539    -9.4462 C       0      f0    -0.0071
    576 C          -15.6416    -5.7285    -8.5047 C       0      f0    -0.0049
    577 C          -15.3138    -6.9836   -11.8678 C       5      f5     0.0119
    578 C          -13.9440    -6.9529    -7.6357 C       0      f0    -0.0272
    579 C          -13.2859    -6.9354   -11.5265 C       5      f5    -0.0062
    580 H          -13.6213    -5.8342    -9.9778 H       0      f0     0.0264
    581 C          -12.6953    -6.2425   -10.1929 C       5      f5    -0.0330
    582 C          -11.3941    -4.6129   -11.9385 C       5      f5    -0.0158
    583 C          -11.3865    -5.5297   -10.9171 C       5      f5    -0.0082
    584 H          -10.8451    -3.8380   -12.0096 H       0      f0     0.0431
    585 C           -6.5844    -3.2886   -11.3197 C       0      f0    -0.0256
    586 C           -5.2675    -3.9383   -11.4157 C       0      f0     0.0031
    587 H           -5.2223    -4.8955   -12.0143 H       0      f0     0.0527
    588 O           -3.5421    -6.3932   -10.3683 O       0      f0    -0.5193
    589 C           -3.3357    -5.7598    -9.3372 C       0      f0     0.3472
    590 C           -2.7931    -5.0875    -8.0849 C       0      f0    -0.0571
    591 C           -2.5894    -3.7514    -7.6176 C       0      f0    -0.0445
    592 C           -2.6217    -2.4712    -7.2549 C       0      f0     0.2470
    593 H           -2.6657    -7.3353   -12.1629 H       0      f0     0.0837
    594 C           -1.5062    -5.5901    -7.7717 C       0      f0     0.0218
    595 C           -0.3882    -5.4524    -8.7572 C       0      f0    -0.0060
    596 C            0.3948    -5.8009    -9.8317 C      17     f17    -0.0009
    597 H            1.1692    -3.8767    -9.8767 H       0      f0     0.0339
    598 C            1.2139    -5.2428   -11.0981 C      17     f17    -0.0072
    599 C            1.8281    -3.7994   -10.7423 C       0      f0    -0.0476
    600 C            1.5533    -5.9490   -11.9810 C      17     f17     0.0082
    601 H            1.2177    -3.0868   -11.4646 H       0      f0     0.0685
    602 H            2.7259    -4.3191    -8.9196 H       0      f0     0.0204
    603 C            2.6877    -4.1226    -7.8272 C       0      f0    -0.0197
    604 H            2.9649    -4.0762   -10.6178 H       0      f0     0.0271
    605 C            5.2082    -2.5324   -10.9708 C       0      f0    -0.0152
    606 H            5.8144    -6.0500    -7.7996 H       0      f0     0.0385
    607 H            6.1043    -1.9210   -11.1420 H       0      f0     0.0240
    608 C            6.8800    -6.2933    -7.4373 C      81     f81     0.0085
    609 H            7.1221    -4.8816   -10.4083 H       0      f0     0.0646
    610 C            7.8516    -4.4325    -9.8058 C       0      f0    -0.0124
    611 C            8.2684    -6.0592    -8.0882 C       0      f0     0.0209
    612 C            8.5594    -2.9542    -9.8987 C       0      f0     0.0181
    613 C            8.8608    -5.2959    -9.0386 C       0      f0    -0.0081
    614 C            9.3113    -2.3135    -9.0392 C       0      f0    -0.0101
    615 C            9.4177    -2.7481   -11.0368 C       0      f0    -0.0646
    616 C            9.7031    -6.7693    -7.4615 C       0      f0     0.0107
    617 H            9.8435    -5.3281    -9.5335 H       0      f0     0.0256
    618 H           13.8180    -5.7025    -9.7910 H       0      f0     0.0196
    619 C           13.9257    -3.3472    -9.8157 C       0      f0     0.0113
    620 C           14.1943    -4.6451   -10.2653 C       0      f0    -0.0180
    621 C           15.2403    -6.8620   -10.6938 C       0      f0    -0.0133
    622 C           15.4918    -5.5654   -10.5446 C       0      f0    -0.0016
    623 C          -15.8854    -1.1164    -9.5018 C       0      f0     0.0316
    624 H          -16.2658    -1.7622   -10.1571 H       0      f0     0.0418
    625 H          -14.9674    -2.9785    -7.7634 H       0      f0     0.0170
    626 C          -14.5062    -0.8370    -9.2135 C       0      f0     0.0120
    627 C          -13.1967    -0.6864    -9.6170 C       0      f0     0.0087
    628 H          -12.7714    -1.3951   -11.5141 H       0      f0     0.3360
    629 C          -12.2027    -1.2604    -8.4224 C       0      f0    -0.0150
    630 H          -11.0024    -1.2144    -8.4414 H       0      f0     0.0153
    631 C          -10.6839     1.3317    -8.1672 C       4      f4    -0.0155
    632 H          -10.2131     0.2033    -8.7158 H       0      f0     0.0211
    633 H           -8.5453     0.2082   -10.8287 H       0      f0     0.0820
    634 H           -8.3089    -2.5783   -10.0971 H       0      f0     0.0164
    635 C           -7.5670    -0.3421   -10.5317 C      39     f39    -0.0201
    636 C           -7.5125    -1.7094   -10.0390 C      39     f39    -0.0211
    637 C           -6.3494     0.1723   -11.0749 C      39     f39     0.0063
    638 C           -6.3983    -2.1802   -10.4743 C      39     f39     0.0092
    639 C           -5.9964     1.0927   -12.1015 C       0      f0     0.0036
    640 C           -5.5592    -1.2240   -10.5906 C      39     f39    -0.0268
    641 H           -5.1060    -1.2695    -7.8184 H       0      f0    -0.0081
    642 H           -4.7683    -1.2575   -10.0826 H       0      f0     0.0194
    643 C           -4.1761     2.2821    -8.0690 C       0      f0     0.0070
    644 C           -4.0417     0.1029    -8.5805 C       0      f0    -0.0478
    645 C           -3.8677    -0.8712    -8.0271 C       0      f0     0.1699
    646 H           -3.2039     0.7916   -10.1882 H       0      f0     0.0286
    647 C           -3.9489     1.2396    -9.0949 C       0      f0     0.0095
    648 C            0.8125     1.2910    -7.5579 C       0      f0     0.0325
    649 O            1.1433    -0.7368   -11.4712 O      73     f73    -0.4445
    650 C            1.3087     0.4150    -8.4496 C       0      f0    -0.0160
    651 H            1.4633     0.0809    -9.5030 H       0      f0     0.0940
    652 C            3.4790    -1.5804    -7.5525 C       0      f0    -0.0275
    653 C            4.1109    -1.4181    -8.7737 C       0      f0     0.0086
    654 H            4.8352     0.4173   -11.3155 H       0      f0     0.0318
    655 C            4.5591    -2.1624    -9.9752 C       0      f0     0.0090
    656 C            4.5779     0.0634    -8.3415 C       0      f0    -0.0093
    657 H            4.3238     0.3795    -7.2448 H       0      f0     0.0454
    658 C            5.4162     0.1919   -10.2578 C      82     f82    -0.0626
    659 C            5.3720     0.8037    -9.2691 C      82     f82     0.0980
    660 C            6.5906     0.3224   -10.3482 C      82     f82     0.0286
    661 C            7.1905     0.4226   -11.4471 C       0      f0    -0.0164
    662 C            9.1060     1.4733    -9.8429 C       0      f0     0.0051
    663 H            8.9750    -1.7002    -7.2515 H       0      f0     0.0251
    664 C            9.2429     0.0771    -9.5095 C       0      f0    -0.0006
    665 H            8.8472    -0.5205   -10.4953 H       0      f0     0.0199
    666 C            9.8002    -1.7710    -8.0687 C       0      f0    -0.0131
    667 C           10.1271     2.3091   -12.1394 C       0      f0     0.0044
    668 H           10.6690     1.1398    -8.0533 H       0      f0     0.0223
    669 C           10.2465     0.2094    -8.3804 C       0      f0    -0.0084
    670 C           10.5457    -0.6778    -7.2390 C       0      f0    -0.0052
    671 C           12.3606    -0.8623   -11.3455 C       0      f0     0.0071
    672 C           13.0508    -1.2618   -10.4389 C       0      f0    -0.0039
    673 C           13.5232    -2.2518    -9.3630 C       0      f0    -0.0353
    674 H           13.7888    -2.2990    -8.3111 H       0      f0     0.0227
    675 H           14.1779    -1.0208   -10.4518 H       0      f0     0.1047
    676 O           15.0034    -0.9586   -12.3014 O       2      f2    -0.5139
    677 O           15.6544     1.4024    -9.8486 O       0      f0    -0.4378
    678 C           15.7310     0.5754    -8.7516 C      40     f40     0.2833
    679 C           15.8920    -1.2663    -7.3553 C      40     f40     0.0021
    680 C           15.9707    -0.7083    -8.6850 C      40     f40    -0.0778
    681 C           16.3251     0.9478    -7.2763 C      40     f40    -0.0470
    682 H          -14.8979     4.4073   -11.8919 H       0      f0     0.0188
    683 C          -13.8056     4.3995   -11.5499 C       4      f4    -0.0156
    684 C          -13.6470     4.9493    -9.5219 C       4      f4     0.0187
    685 C          -13.3608     3.1580   -12.2283 C       4      f4     0.0216
    686 C          -13.2870     4.4094    -8.2299 C       4      f4    -0.0462
    687 C          -12.6824     4.9207   -10.8403 C       4      f4    -0.0089
    688 C          -12.5580     3.1486    -8.3482 C       4      f4     0.0226
    689 C          -12.0156     3.1687   -11.7379 C       4      f4    -0.1022
    690 C          -11.5556     3.4289    -9.2950 C       4      f4    -0.0149
    691 C          -11.6314     3.9031   -10.4010 C       4      f4     0.0160
    692 C          -10.6047     2.4187    -9.1564 C       4      f4    -0.0028
    693 C           -9.9215     6.5839    -8.5132 C       0      f0    -0.0108
    694 H           -9.7471     2.6683    -9.6986 H       0      f0     0.0387
    695 C           -8.7937     5.9660    -9.1801 C       0      f0    -0.0256
    696 H           -8.8703     3.8835    -9.5650 H       0      f0     0.0095
    697 C           -8.5255     4.6298    -8.5675 C       0      f0    -0.0232
    698 H           -8.6069     3.7686   -11.1901 H       0      f0     0.0199
    699 H           -8.0812     6.5911    -9.1280 H       0      f0     0.0295
    700 H           -7.2752     4.3032    -9.6931 H       0      f0     0.0226
    701 H           -6.6232     3.4889   -11.3087 H       0      f0     0.0279
    702 C           -6.5181     4.2148   -10.5491 C       0      f0    -0.0443
    703 C           -6.3405     5.3412   -11.3015 C       0      f0     0.0044
    704 C           -6.2040     6.6183   -11.6083 C       0      f0    -0.0265
    705 C           -4.6123     5.7985    -7.7980 C       0      f0    -0.0054
    706 H           -3.8931     6.5630   -10.4113 H       0      f0     0.0284
    707 C           -3.3655     5.2617    -8.5506 C       0      f0    -0.0155
    708 C           -3.2854     6.8699   -11.2249 C       0      f0    -0.0194
    709 C           -2.1414     4.8642   -11.7934 C       0      f0    -0.0081
    710 C           -2.0913     5.4356    -9.0900 C       0      f0    -0.0068
    711 C           -1.8237     4.5311   -10.5553 C       0      f0    -0.0073
    712 C           -1.3924     6.6895    -8.9765 C       0      f0    -0.0157
    713 C           -0.7790     3.6499    -9.9857 C       0      f0     0.0084
    714 C            0.2072     3.3777   -10.3274 C       0      f0    -0.0096
    715 H            1.0837     2.5426    -9.9775 H       0      f0     0.0366
    716 C            5.5276     3.4671   -11.4831 C       0      f0    -0.0239
    717 C            6.1293     4.7246   -11.8350 C       0      f0    -0.0141
    718 H            5.5771     3.0520   -10.4910 H       0      f0     0.0326
    719 H            6.3078     6.9132   -10.9601 H       0      f0     0.0160
    720 H            6.6195     5.0134   -10.9019 H       0      f0     0.0235
    721 C            7.2209     5.2740    -7.9021 C       0      f0    -0.0130
    722 H            7.7885     4.3673    -8.1292 H       0      f0     0.0355
    723 C            7.9637     6.2469    -8.8470 C       0      f0    -0.0119
    724 H            8.9889     4.8053   -10.0642 H       0      f0     0.0166
    725 C            8.5768     2.7209    -9.6689 C       0      f0     0.0272
    726 C            8.9078     3.6821   -10.4792 C       0      f0    -0.0265
    727 H            9.6968     4.9876    -7.2002 H       0      f0     0.0220
    728 C            9.4801     5.9923    -7.2473 C       0      f0    -0.0401
    729 H            9.9880     6.5728    -7.9481 H       0      f0     0.0228
    730 C            9.7647     3.4522   -11.3310 C       0      f0    -0.0135
    731 H           10.2340     6.0589   -10.8039 H       0      f0     0.3934
    732 O           10.1555     6.5561   -11.3344 O       0      f0    -0.7680
    733 H           10.3281     4.2909   -11.3188 H       0      f0     0.0392
    734 H           13.4505     2.7629    -7.7605 H       0      f0     0.0232
    735 H           13.6676     3.0840   -10.7320 H       0      f0     0.0540
    736 C           14.0715     3.9216   -11.5079 C       0      f0    -0.0272
    737 H           15.0642     4.2933   -11.2993 H       0      f0     0.0376
    738 H           16.4020    10.1122   -12.3268 H       0      f0     0.0247
    739 C          -15.6998    10.2204    -7.7285 C       0      f0    -0.0218
    740 H          -13.5955     7.2017   -11.8748 H       0      f0     0.0168
    741 H          -12.0783     9.8966    -8.5304 H       0      f0     0.0211
    742 C          -11.7262    10.5191    -7.7098 C       0      f0    -0.0138
    743 H          -10.9386     9.5822   -10.4477 H       0      f0     0.0181
    744 C          -10.5657     7.8545    -8.3768 C       0      f0    -0.0008
    745 C          -10.4793     8.5297    -9.6718 C       0      f0    -0.0047
    746 C           -9.3995     8.8832   -10.4246 C       0      f0    -0.0195
    747 C           -8.3048     9.6081   -10.9064 C      83     f83     0.0865
    748 C           -7.2148     9.4484   -11.9106 C      83     f83     0.1966
    749 O           -6.5386    10.2120   -10.8993 O      83     f83    -0.3582
    750 H           -6.1519     7.4318   -10.7439 H       0      f0     0.0478
    751 C           -2.2311     7.8241   -10.7469 C       0      f0     0.0158
    752 C           -1.1384     8.5822   -10.4597 C      28     f28     0.0136
    753 C           -0.9640     8.0280    -9.0190 C      28     f28     0.0063
    754 C            0.2066     8.6960    -8.2202 C      28     f28     0.0594
    755 C            0.0666     8.9354   -11.1762 C      28     f28     0.0019
    756 C            1.2939     9.0419    -9.1272 C      28     f28     0.0021
    757 C            1.1713     9.4957   -10.6650 C      28     f28    -0.0092
    758 H            2.1619    11.2390   -11.6383 H       0      f0     0.0163
    759 H            2.2459     9.8680   -11.0668 H       0      f0     0.0134
    760 H            2.4984    11.5302   -10.0240 H       0      f0     0.0208
    761 C            2.6423     8.5945    -9.1027 C       0      f0    -0.0200
    762 H            2.6609     7.7583    -8.4550 H       0      f0     0.0363
    763 C            3.3334    11.8779    -9.4359 C      41     f41    -0.0173
    764 C            4.0495     8.7783    -9.2284 C       0      f0    -0.0154
    765 C            4.6594    11.2069    -8.8663 C      41     f41    -0.0071
    766 C            4.6650     9.7314    -8.4324 C       0      f0    -0.0004
    767 H            4.5387     8.1985   -10.1837 H       0      f0     0.0087
    768 C            7.0932    12.1085    -8.0604 C       0      f0    -0.0092
    769 H            7.4211     8.8867   -10.5881 H       0      f0     0.0197
    770 C            8.0712     7.4364    -9.4734 C       0      f0     0.0087
    771 C            8.3722     8.3285   -10.4960 C       0      f0    -0.0570
    772 C            8.0728    11.1547    -8.9112 C       0      f0    -0.0089
    773 C            8.8399    10.7655    -9.8810 C       0      f0    -0.0096
    774 C            8.8336     7.4598   -11.6286 C       0      f0     0.2571
    775 C            9.7938    10.0939   -10.6619 C       0      f0     0.0185
    776 H           10.8569     8.7442    -8.8188 H       0      f0     0.0111
    777 C           10.6465     9.0132    -9.7996 C       0      f0     0.0063
    778 C           11.8228     8.9547   -10.4599 C       0      f0     0.0115
    779 H           12.4307     8.4024    -9.5051 H       0      f0     0.0154
    780 C           12.8239     8.7465   -11.6086 C       6      f6     0.0098
    781 C           12.8096    11.2263   -11.5136 C       0      f0    -0.0020
    782 C           14.0106     7.8602   -12.0454 C       6      f6    -0.0113
    783 C           14.1239    11.8884   -11.0814 C       0      f0     0.0061
    784 C           14.7400     9.6790   -10.8217 C      85     f85    -0.0036
    785 C           15.2519     8.1076   -11.0494 C      84     f84    -0.0198
    786 C           15.3155    10.9413   -11.1451 C      85     f85     0.0007
    787 H           16.1652     7.6622   -10.8510 H       0      f0     0.0207
    788 C           16.1013     9.1516    -7.9612 C       0      f0    -0.0091
    789 C           16.1565     9.5607   -11.2987 C      85     f85    -0.0217
    790 H          -16.2629     8.8978    -8.7921 H       0      f0     0.0251
    791 C           16.2556    11.3694    -7.3683 C       0      f0    -0.0065
    792 H          -15.9027    12.9301    -8.4250 H       0      f0     0.0267
    793 H          -15.1360   -15.9972   -10.9381 H       0      f0     0.0162
    794 H          -15.3243    12.4860   -11.1437 H       0      f0     0.0204
    795 C          -14.9893    13.6085    -8.4005 C       0      f0    -0.0438
    796 C          -14.5100    13.2348   -11.1080 C       0      f0    -0.0205
    797 C          -14.5475    13.6955    -9.6927 C       0      f0     0.0052
    798 H          -14.4437    13.6572    -7.6015 H       0      f0     0.0239
    799 H          -13.4845    16.4255    -8.7637 H       0      f0     0.0196
    800 H          -12.0170    15.7923    -9.8539 H       0      f0     0.0226
    801 C          -11.4024    14.1266    -7.3775 C       0      f0     0.0106
    802 C          -11.4146    12.7672    -7.6270 C       0      f0    -0.0219
    803 C          -10.8371    15.3104   -10.2168 C      86     f86    -0.0101
    804 H          -10.6784    12.2251    -8.1497 H       0      f0     0.0312
    805 H          -10.0887    15.6545    -7.5653 H       0      f0     0.0164
    806 C           -9.5785    16.0760   -10.2314 C      86     f86     0.0491
    807 C           -9.6303    14.5816   -10.1940 C      86     f86    -0.0075
    808 C           -8.5851    14.1441   -11.1073 C       0      f0     0.0118
    809 C           -8.2327    16.1899    -9.5312 C       0      f0    -0.0302
    810 C           -7.3263    13.4387   -11.4521 C      38     f38    -0.0135
    811 H           -6.8380    13.2280    -8.6609 H       0      f0     0.2580
    812 C           -7.0342    15.9971   -10.5492 C       0      f0     0.0112
    813 C           -6.0173    13.2323   -10.6672 C      38     f38     0.2297
    814 O           -6.3307    12.6004    -9.1476 O       0      f0    -0.5484
    815 C           -6.4497    15.7534   -11.3017 C       0      f0    -0.0288
    816 C           -4.9679    13.4133   -11.3946 C      38     f38    -0.0568
    817 C           -4.3375    16.6820    -7.5495 C      27     f27    -0.0189
    818 C           -4.0577    16.5176    -8.9463 C      27     f27     0.0184
    819 H           -3.8825    13.5606    -7.5766 H       0      f0    -0.0131
    820 H           -2.9056    12.2921   -10.4925 H       0      f0     0.0687
    821 H           -3.7777    15.6749    -9.5736 H       0      f0     0.0349
    822 C           -3.6218    13.2577   -11.0841 C       0      f0     0.0005
    823 H           -3.3861    13.9501   -10.2962 H       0      f0     0.0411
    824 O           -2.0025    13.0803    -7.5552 O       0      f0    -0.4383
    825 C            0.0109    14.8385   -11.5734 C       0      f0     0.0154
    826 C            0.7388    14.9588   -10.4932 C       0      f0     0.0033
    827 C            0.6235    15.4858    -8.9371 C       0      f0     0.0008
    828 C            1.2953    14.6028    -7.9504 C       0      f0    -0.0178
    829 H            1.1848    13.0756    -9.0086 H       0      f0     0.0416
    830 C            1.7173    13.2059    -7.9385 C       0      f0    -0.0031
    831 H            1.7661    14.7275    -9.9056 H       0      f0     0.0159
    832 C            2.7990    13.8538   -10.9352 C       0      f0    -0.0164
    833 C            3.7227    12.8790   -10.1113 C      41     f41    -0.0054
    834 C            4.7420    15.4008   -12.2523 C       0      f0    -0.0036
    835 C            5.3536    12.9215   -10.0956 C      41     f41    -0.0034
    836 C            5.5641    14.7074   -11.6380 C       0      f0     0.0098
    837 C            5.8442    12.0679    -9.1890 C      41     f41    -0.0040
    838 C            6.4963    13.7735   -10.6732 C       0      f0     0.0054
    839 C            7.4854    13.1806    -7.1998 C       0      f0    -0.0064
    840 C            7.6807    13.6950   -10.3790 C       0      f0     0.0148
    841 C            8.9329    13.3291    -7.7033 C       0      f0     0.0125
    842 C            9.0299    13.6598   -10.1415 C       0      f0    -0.0099
    843 H            9.5005    14.4164   -10.5942 H       0      f0     0.0431
    844 C           10.2998    13.0717    -9.5655 C       0      f0    -0.0093
    845 C           10.2077    12.9889    -8.1513 C       0      f0    -0.0196
    846 O           11.0195    16.5926    -9.8478 O      80     f80    -0.3936
    847 C           10.8894    15.9903   -11.5835 C      80     f80     0.0336
    848 H           11.3159    13.1206    -9.6339 H       0      f0     0.0262
    849 H           11.0289    13.3652    -7.3088 H       0      f0     0.0225
    850 H           13.3906   -16.2208    -9.6959 H       0      f0     0.0458
    851 H           12.8625    14.1032   -11.2332 H       0      f0     0.0283
    852 C           13.2556    13.8512   -10.2456 C       0      f0    -0.0247
    853 C           13.6754    16.3941    -9.0206 C       0      f0    -0.0100
    854 C           13.4645    15.1303    -9.5743 C       0      f0     0.0395
    855 C           14.1068    12.7386    -9.8573 C       0      f0    -0.0043
    856 H           14.2643    16.6966    -8.1386 H       0      f0     0.0209
    857 C           14.4843    12.4509    -8.5811 C       0      f0    -0.0043
    858 C           15.0127    12.2171    -7.4476 C       0      f0    -0.0300
    859 H           16.3573    16.6923    -9.1022 H       0      f0     0.0183
    860 H          -15.7709   -16.6427    -5.2045 H       0      f0     0.0219
    861 C          -14.8651   -16.2426    -5.6626 C       0      f0    -0.0204
    862 C          -13.9861   -15.2657    -4.7953 C       0      f0     0.0068
    863 C          -13.9378   -14.3922    -3.9064 C       0      f0     0.0022
    864 C          -13.4679   -16.3932    -3.5252 C       0      f0    -0.0105
    865 H           -7.8482   -13.1935    -6.0775 H       0      f0     0.0331
    866 H           -7.6261   -15.6823    -3.0687 H       0      f0     0.0223
    867 C           -7.0697   -13.3504    -6.8986 C       0      f0    -0.0664
    868 H           -6.0995   -13.1067    -6.5332 H       0      f0     0.0225
    869 H           -5.1579   -16.7155    -3.1366 H       0      f0     0.0139
    870 C           -4.7584   -15.7573    -6.8008 C      77     f77    -0.0141
    871 H           -4.9495   -13.9945    -5.1741 H       0      f0     0.0019
    872 C           -4.3058   -14.3737    -6.3956 C      77     f77     0.0045
    873 H           -2.9928   -15.4763    -4.9798 H       0      f0     0.0350
    874 C           -2.9834   -14.8012    -5.6524 C       0      f0    -0.0270
    875 H           -2.7958   -13.5210    -5.5427 H       0      f0     0.0764
    876 H           -2.2070   -15.0826    -6.5322 H       0      f0     0.1226
    877 H           -0.6289   -11.8560    -4.2724 H       0      f0     0.0383
    878 O           -0.5200   -14.1935    -6.0139 O       0      f0    -0.6454
    879 C            0.1533   -12.6106    -4.0530 C       0      f0    -0.0185
    880 H           -0.2317   -14.7940    -6.5399 H       0      f0     0.3446
    881 C            0.7576   -12.7955    -2.5858 C       0      f0     0.0004
    882 C            0.6427   -13.1107    -5.4141 C       0      f0     0.2303
    883 H            1.7083   -13.2032    -2.3159 H       0      f0     0.0223
    884 C            1.8698   -12.9594    -5.8348 C       0      f0    -0.0994
    885 H            2.5627   -12.4841    -5.5992 H       0      f0     0.0343
    886 C            2.4331   -13.3042    -7.3327 C       0      f0     0.0105
    887 H            2.1134    16.6431    -5.2531 H       0      f0     0.0213
    888 H            3.9027   -13.6320    -5.0766 H       0      f0     0.0184
    889 C            4.9566   -13.2292    -4.7230 C       0      f0    -0.0416
    890 H            5.3887    16.7110    -7.1382 H       0      f0     0.0433
    891 H            5.8443   -13.7088    -4.3502 H       0      f0     0.0235
    892 C            6.6042   -16.5287    -3.7448 C       0      f0    -0.0058
    893 C            6.9254   -15.1430    -3.4683 C       0      f0    -0.0148
    894 H            7.1121   -11.8767    -3.7252 H       0      f0     0.0190
    895 C            8.0945   -14.2298    -3.8143 C       0      f0    -0.0078
    896 H            8.8386   -13.6314    -6.4887 H       0      f0     0.0128
    897 C            8.7190   -13.0845    -3.8396 C       0      f0    -0.0154
    898 H            9.3351   -13.0855    -4.8434 H       0      f0     0.0137
    899 C           11.1685   -15.7736    -5.2342 C       0      f0     0.0025
    900 H           11.9875   -13.8721    -5.9126 H       0      f0     0.0177
    901 C           11.8571   -14.3455    -5.0848 C       0      f0    -0.0265
    902 C           12.4804   -13.6237    -3.7899 C       0      f0    -0.0026
    903 C           12.0073   -14.0512    -2.3325 C       0      f0    -0.0242
    904 H           12.0063   -12.0060    -5.7719 H       0      f0     0.0166
    905 C           12.8962   -12.3087    -4.1045 C       0      f0     0.0004
    906 H           13.8172   -15.3902    -4.3595 H       0      f0     0.0238
    907 C           14.9192   -15.2358    -4.5683 C       0      f0    -0.0328
    908 C           15.4711   -14.9454    -6.0118 C       0      f0    -0.0031
    909 C           15.6405   -16.0627    -6.8161 C       0      f0    -0.0025
    910 H           15.2689   -14.3971    -3.7679 H       0      f0     0.0162
    911 H           16.2758   -12.2133    -4.5758 H       0      f0     0.0210
    912 H          -15.7878    -8.3975    -4.6328 H       0      f0     0.0128
    913 C          -14.8744    -7.7471    -4.1178 C       0      f0    -0.1193
    914 C          -14.7349    -7.6891    -2.5842 C       0      f0     0.0460
    915 H          -14.7681    -9.7297    -4.3881 H       0      f0    -0.0109
    916 C          -13.8961    -8.8258    -4.3164 C       0      f0     0.3486
    917 O          -12.7835    -9.0064    -3.8629 O       0      f0    -0.4455
    918 H           -9.9862    -7.2795    -5.8281 H       0      f0     0.0548
    919 C           -7.3185    -7.6812    -5.5335 C       0      f0     0.0066
    920 C           -6.0999    -8.3019    -6.1027 C       0      f0     0.0006
    921 C           -5.1520    -9.1186    -5.8634 C       0      f0     0.0019
    922 H           -4.4430    -9.7021    -4.9720 H       0      f0     0.0503
    923 C           -3.8075   -10.2536    -7.1734 C       0      f0    -0.0546
    924 O           -2.4819    -8.1553    -4.4261 O      87     f87    -0.4475
    925 C           -1.4446    -8.8207    -3.4360 C      87     f87     0.1529
    926 C           -1.2156    -8.6107    -4.9023 C      87     f87     0.1994
    927 C           -0.5206    -7.6465    -6.1590 C       0      f0    -0.0208
    928 H           -0.7426    -8.8663    -6.5421 H       0      f0     0.0156
    929 O            1.6353    -8.6206    -2.5657 O       0      f0    -0.4463
    930 C            2.0798    -9.1223    -5.5017 C       0      f0     0.0178
    931 C            3.0954    -9.3085    -4.8829 C       0      f0     0.0126
    932 C            3.8711    -9.2559    -3.7674 C       0      f0     0.0328
    933 H            4.4278   -11.3701    -7.1002 H       0      f0     0.0128
    934 C            4.6350    -8.9310    -2.6607 C       0      f0     0.0119
    935 C            5.4331   -11.2221    -6.3903 C       0      f0    -0.0205
    936 C            5.8176   -12.0665    -5.2056 C       0      f0    -0.0189
    937 C            6.2666    -8.9440    -3.1054 C       0      f0    -0.0102
    938 C            6.2144    -9.9966    -6.5013 C       0      f0    -0.0012
    939 H            5.9349   -11.1259    -4.5878 H       0      f0     0.0190
    940 C            6.8814    -8.8522    -6.5442 C       0      f0     0.0007
    941 C            7.2853    -9.3638    -3.2749 C       0      f0    -0.0033
    942 C            7.3328    -7.7009    -6.6864 C      81     f81     0.0071
    943 C            8.2009   -11.8680    -3.2125 C       0      f0    -0.0354
    944 C            8.4418   -10.3430    -3.4960 C       0      f0    -0.0118
    945 H            9.0433    -9.3711    -6.2649 H       0      f0     0.0168
    946 C            9.6279    -9.9265    -4.0439 C       0      f0     0.0233
    947 C            9.7654    -7.2842    -6.2224 C       0      f0    -0.0631
    948 C            9.7117    -9.3522    -5.3133 C       0      f0    -0.0632
    949 H            9.3932    -6.9356    -3.5382 H       0      f0     0.2784
    950 C            9.9320    -7.8330    -5.1865 C       0      f0     0.2270
    951 H           10.6292   -10.4824    -4.0425 H       0      f0     0.0238
    952 H           12.3329   -10.2434    -5.0336 H       0      f0     0.0294
    953 C           12.6760   -11.3261    -5.2830 C       0      f0    -0.0556
    954 H           12.6403    -8.8810    -3.0945 H       0      f0     0.0528
    955 H           13.7631   -11.3912    -5.8211 H       0      f0     0.0180
    956 C           13.9713   -11.6103    -3.4431 C       0      f0    -0.0020
    957 C           15.2503   -11.4473    -4.5006 C       0      f0    -0.0165
    958 C           15.4897   -10.3915    -5.1853 C       0      f0    -0.0265
    959 H           16.2326    -9.6970    -5.5807 H       0      f0     0.0160
    960 H          -16.2755    -9.2331    -2.3167 H       0      f0     0.0218
    961 C          -15.8577    -4.9481    -7.0961 C       0      f0    -0.0308
    962 H          -16.3852    -5.6249    -6.2982 H       0      f0     0.0199
    963 H          -14.3364    -6.8439    -4.6057 H       0      f0     0.0351
    964 H          -14.6904    -3.0316    -5.6198 H       0      f0     0.0128
    965 H          -13.9565    -6.0013    -6.9631 H       0      f0     0.0141
    966 C          -12.6719    -5.4842    -3.5246 C       0      f0     0.0372
    967 C          -12.4309    -5.2624    -4.6619 C       0      f0    -0.0157
    968 H          -12.7231    -3.9699    -4.8419 H       0      f0     0.0155
    969 H          -12.1941    -7.0610    -6.2730 H       0      f0     0.0368
    970 C          -11.7448    -6.2162    -5.5909 C       0      f0     0.0130
    971 C          -10.8781    -5.1619    -6.0654 C       0      f0    -0.0131
    972 C           -9.5769    -4.5140    -5.5488 C       0      f0    -0.0117
    973 H           -9.9924    -3.4152    -5.4567 H       0      f0     0.0216
    974 C           -8.6166    -5.6733    -5.5323 C       0      f0    -0.0128
    975 C           -8.8638    -7.0274    -5.8445 C       0      f0    -0.0042
    976 H           -7.4670    -5.7094    -5.3992 H       0      f0     0.0182
    977 H           -7.7515    -3.4096    -4.5579 H       0      f0     0.0190
    978 C           -6.9108    -7.1335    -4.3368 C       0      f0     0.0058
    979 H           -6.9607    -4.6819    -4.2815 H       0      f0     0.0217
    980 C           -6.5787    -6.2887    -3.4066 C       1      f1     0.0087
    981 C           -5.8353    -4.9923    -4.1110 C       1      f1    -0.0238
    982 C           -4.5349    -4.7164    -3.8384 C       1      f1     0.0181
    983 H           -4.0689    -3.9069    -4.1388 H       0      f0     0.0549
    984 C           -4.0724    -5.9199    -2.7094 C       1      f1    -0.0427
    985 H           -4.8624    -6.8961    -2.8429 H       0      f0     0.0484
    986 C           -2.7865    -5.3287    -2.4786 C       0      f0     0.2558
    987 O           -1.9404    -4.6331    -3.3749 O       0      f0    -0.4249
    988 C           -0.9676    -6.5797    -6.6260 C       0      f0     0.0494
    989 H            0.5648    -4.7384    -5.3932 H       0      f0     0.0322
    990 H            0.9673    -5.8919    -4.4439 H       0      f0     0.0319
    991 C            0.7422    -5.6220    -3.2263 C       0      f0     0.0309
    992 C            0.8758    -4.6102    -2.5896 C       0      f0     0.0115
    993 H            0.4706    -6.3395    -2.1683 H       0      f0     0.0573
    994 C            0.9763    -3.6268    -5.0883 C      29     f29    -0.0024
    995 C            1.2225    -3.4512    -3.5776 C      29     f29     0.0167
    996 H            2.4312    -5.2149    -6.0535 H       0      f0     0.0199
    997 C            2.5063    -3.1219    -5.8308 C      29     f29    -0.0143
    998 C            2.7576    -2.8461    -7.0828 C       0      f0     0.0040
    999 C            2.8274    -5.4363    -6.9888 C       0      f0    -0.0398
   1000 H            3.8211    -5.9891    -7.0757 H       0      f0     0.0222
   1001 H            5.4929    -5.5353    -4.1456 H       0      f0     0.0197
   1002 H            6.0717    -2.9209    -2.9250 H       0      f0     0.0436
   1003 C            6.5665    -5.1291    -3.7310 C       0      f0    -0.0234
   1004 C            6.7728    -6.3077    -5.9297 C      81     f81    -0.0139
   1005 C            6.7618    -3.4797    -3.5865 C       0      f0    -0.0344
   1006 H            7.0290    -2.7133    -4.1446 H       0      f0     0.0210
   1007 H            7.2565    -5.7288    -2.9905 H       0      f0     0.0192
   1008 C            7.5559    -5.8460    -4.7630 C       0      f0    -0.0120
   1009 H            7.8261    -3.0549    -6.8672 H       0      f0     0.0135
   1010 C            8.1769    -3.4328    -3.1824 C       0      f0    -0.0159
   1011 C            8.6424    -4.7794    -5.4977 C       0      f0     0.0179
   1012 C            8.7432    -3.5218    -6.2780 C       0      f0    -0.0230
   1013 H            9.0370    -4.1250    -3.2211 H       0      f0     0.0350
   1014 C            9.6199    -2.5170    -5.8375 C       0      f0    -0.0052
   1015 O           10.2564    -7.1455    -3.7444 O       0      f0    -0.5925
   1016 C           14.7344    -3.4768    -6.7024 C       0      f0    -0.0017
   1017 C           16.2658    -3.6283    -7.1503 C       0      f0    -0.0037
   1018 C          -15.9214    -1.4805    -3.8456 C       0      f0    -0.0108
   1019 C          -15.8672    -2.3123    -7.2404 C       0      f0    -0.0126
   1020 H          -15.9722     1.8458    -4.6364 H       0      f0     0.0371
   1021 C          -15.1338    -1.0500    -5.0051 C       0      f0    -0.0126
   1022 H          -14.3132    -0.4357    -4.4462 H       0      f0     0.0199
   1023 H          -14.3790    -1.4610    -2.5639 H       0      f0     0.0219
   1024 C          -14.5812    -1.9535    -6.1047 C       0      f0    -0.0174
   1025 C          -13.2532    -1.5391    -6.3563 C       0      f0    -0.0086
   1026 H          -12.7521     2.7704    -6.2039 H       0      f0     0.0475
   1027 C          -12.2109     2.2886    -6.9368 C       4      f4    -0.0260
   1028 C          -12.0058    -1.1429    -6.8380 C       0      f0    -0.0117
   1029 H          -11.2927    -1.9879    -2.0777 H       0      f0     0.0556
   1030 C          -11.3332     1.0467    -6.9065 C       4      f4     0.0027
   1031 C          -10.6325     0.4203    -4.6302 C       0      f0     0.0014
   1032 C          -11.0425    -0.0902    -5.9741 C       0      f0    -0.0151
   1033 C          -10.6550     1.4727    -3.5396 C       0      f0    -0.0042
   1034 H           -9.9584    -0.4433    -6.4641 H       0      f0     0.0126
   1035 C           -9.6788     1.1758    -2.4350 C      88     f88     0.0018
   1036 H           -8.1947     1.5881    -5.9664 H       0      f0     0.0138
   1037 H           -7.5705    -1.5510    -5.8275 H       0      f0     0.0104
   1038 C           -7.3281    -2.3924    -4.1324 C       0      f0    -0.0067
   1039 H           -7.5000     1.1304    -4.2960 H       0      f0     0.0765
   1040 C           -7.5504    -1.0448    -4.8345 C       0      f0    -0.0181
   1041 C           -7.0827    -2.3246    -2.6769 C       0      f0    -0.0158
   1042 C           -6.9450     0.1041    -4.3399 C       0      f0    -0.0110
   1043 C           -5.5572     0.2067    -4.5285 C       0      f0     0.0107
   1044 H           -5.7791     0.9873    -2.4498 H       0      f0     0.0793
   1045 C           -4.2511    -0.1031    -4.5457 C       0      f0     0.0109
   1046 H           -3.8551     0.7668    -5.3835 H       0      f0     0.0483
   1047 H           -3.8651    -0.8015    -2.7165 H       0      f0     0.0351
   1048 C           -3.3728    -0.7315    -3.6748 C       0      f0    -0.0002
   1049 H           -3.0764     2.0304    -4.9303 H       0      f0     0.0322
   1050 O           -2.6982    -1.0724    -6.8651 O       0      f0    -0.4862
   1051 C           -2.1462    -1.3630    -3.9717 C       0      f0     0.0261
   1052 H           -2.0625    -1.9806    -2.8731 H       0      f0     0.0405
   1053 C           -1.0614    -0.8751    -4.6936 C       0      f0     0.0525
   1054 C           -0.1293    -0.1153    -5.1597 C       0      f0    -0.0208
   1055 C            0.0901     1.2966    -5.2541 C       0      f0     0.0306
   1056 H            0.1449    -0.7280    -6.1004 H       0      f0     0.0466
   1057 C            0.0925     2.0344    -4.2765 C       0      f0     0.0117
   1058 C            0.2943     2.3947    -3.2583 C       0      f0    -0.0013
   1059 C            0.6533     1.8984    -6.4540 C       0      f0    -0.0307
   1060 C            1.3950    -2.0631    -3.1259 C      29     f29    -0.0176
   1061 C            2.6809    -1.3960    -3.8648 C      29     f29     0.0007
   1062 H            2.5294    -0.0135    -2.3371 H       0      f0     0.0397
   1063 O            2.9317     1.8227    -4.5206 O       0      f0    -0.4918
   1064 C            2.9475    -2.2151    -4.7494 C      29     f29    -0.0155
   1065 C            3.2386    -0.3194    -2.9448 C       0      f0    -0.1058
   1066 C            3.5128     0.6938    -4.2550 C       0      f0     0.3031
   1067 H            2.9790    -0.6502    -7.0158 H       0      f0     0.0241
   1068 H            4.1199    -0.8331    -2.5413 H       0      f0     0.0557
   1069 H            4.9666     0.5046    -3.2561 H       0      f0     0.0127
   1070 C            4.7018     0.5875    -5.0499 C       0      f0    -0.0554
   1071 C            5.5768     1.5737    -5.8771 C      89     f89     0.0877
   1072 H            5.6816    -0.9370    -6.4936 H       0      f0     0.0332
   1073 C            5.9092    -0.2149    -3.2190 C       0      f0    -0.0214
   1074 C            5.9773    -0.4333    -4.5599 C       0      f0     0.0029
   1075 C            6.5262    -1.0925    -5.5900 C       0      f0    -0.0243
   1076 O            6.6710     1.6161    -7.4408 O      89     f89    -0.4275
   1077 H            7.2951    -1.7710    -5.4989 H       0      f0     0.0197
   1078 H            7.6750     1.5579    -4.4284 H       0      f0     0.0206
   1079 H            8.9484     1.9449    -1.8091 H       0      f0     0.0165
   1080 C            8.6608     1.6764    -4.8941 C       0      f0     0.0018
   1081 C            9.5458     1.9129    -3.9946 C       0      f0    -0.0052
   1082 C            9.5582     2.2492    -2.7317 C       0      f0    -0.0250
   1083 H            9.7995    -0.1355    -2.8686 H       0      f0     0.0209
   1084 C           10.1613    -1.1351    -5.8901 C       0      f0    -0.0011
   1085 H           10.9573    -2.2134    -4.2363 H       0      f0     0.0300
   1086 C           10.8465    -0.0899    -2.6940 C      90     f90    -0.0320
   1087 C           10.8741    -1.1865    -4.6856 C       0      f0    -0.0160
   1088 C           11.7210    -0.1284    -4.0834 C      90     f90    -0.0162
   1089 C           12.1675    -0.9393    -2.9748 C      90     f90     0.0043
   1090 H           12.6689    -0.1288    -4.4353 H       0      f0     0.0166
   1091 C           13.5002    -0.9851    -2.9843 C       0      f0    -0.0119
   1092 H           14.3266     0.2465    -5.2349 H       0      f0     0.0139
   1093 C           14.8557    -0.8211    -2.8444 C       0      f0     0.0011
   1094 H           14.9718    -1.0932    -5.0116 H       0      f0     0.0191
   1095 C           15.3632     0.1665    -5.2705 C       0      f0    -0.0265
   1096 C           15.6708     0.4452    -3.1471 C       0      f0    -0.0175
   1097 C           15.9831    -0.0327    -6.4769 C      40     f40     0.0076
   1098 C           15.8756    -1.9539    -2.9095 C       0      f0    -0.0162
   1099 C           16.2184     1.0090    -4.2526 C       0      f0    -0.0108
   1100 H          -16.0080     2.7652    -7.7720 H       0      f0     0.0591
   1101 O          -14.2408     5.1750    -5.8856 O       0      f0    -0.4230
   1102 C          -13.3562     5.2392    -6.8992 C       0      f0     0.2703
   1103 C          -12.0279     4.6639    -6.2457 C       0      f0    -0.0304
   1104 C          -11.3917     4.3951    -5.4009 C       0      f0     0.0357
   1105 C          -10.7236     3.0611    -3.3369 C       0      f0     0.0087
   1106 C          -10.7544     4.2064    -4.2462 C       0      f0    -0.0223
   1107 H          -10.3335     5.1155    -3.7434 H       0      f0     0.0273
   1108 H           -9.1718     5.9568    -5.7768 H       0      f0     0.0188
   1109 H           -8.9329     3.1058    -4.6152 H       0      f0     0.0413
   1110 C           -8.3212     5.3837    -6.0221 C      91     f91    -0.0187
   1111 C           -8.2812     4.7034    -7.2363 C      91     f91    -0.0027
   1112 C           -8.2616     3.6865    -5.4043 C      91     f91     0.0114
   1113 C           -7.5421     2.5319    -6.0939 C       0      f0    -0.0025
   1114 C           -7.4000     6.4619    -5.3565 C       0      f0    -0.0043
   1115 C           -7.1501     6.6540    -2.6226 C       0      f0    -0.0034
   1116 C           -7.1630     6.5507    -4.0033 C       0      f0    -0.0052
   1117 O           -6.7299     2.7455    -3.0759 O       0      f0    -0.5432
   1118 C           -6.2205     2.9742    -6.4197 C       0      f0     0.0039
   1119 C           -6.3017     6.5809    -6.1053 C       0      f0    -0.0024
   1120 H           -6.5252     3.9645    -6.2878 H       0      f0     0.0274
   1121 C           -6.0396     3.4676    -2.3464 C       0      f0     0.3226
   1122 C           -5.4761     6.2587    -6.9615 C       0      f0     0.0001
   1123 C           -5.2023     2.9427    -7.3431 C       0      f0    -0.0114
   1124 H           -4.2353     3.5594    -5.1426 H       0      f0     0.0345
   1125 C           -4.1839     5.5291    -3.0854 C      42     f42     0.0109
   1126 C           -3.7309     6.9323    -2.6798 C      42     f42     0.0134
   1127 C           -3.2634     3.2009    -4.8209 C       0      f0    -0.0327
   1128 C           -2.8116     5.3672    -3.6694 C      42     f42     0.0096
   1129 C           -2.4063     3.8805    -4.0734 C       0      f0    -0.0029
   1130 C           -1.9552     6.7819    -4.0494 C      42     f42    -0.0093
   1131 H           -1.4119     3.3472    -4.0972 H       0      f0     0.0203
   1132 C           -0.5269     6.8808    -3.8480 C       0      f0     0.0380
   1133 H           -0.0790     6.6250    -7.4655 H       0      f0     0.0347
   1134 C            0.2830     5.7305    -3.8411 C       0      f0    -0.0098
   1135 H            1.4417     2.5638    -6.1273 H       0      f0     0.0970
   1136 H            1.2323     3.7910    -4.0580 H       0      f0     0.0173
   1137 C            1.3014     4.8687    -4.2869 C       0      f0     0.2085
   1138 O            2.3325     5.1294    -5.2430 O       0      f0    -0.4952
   1139 H            3.3243     3.9967    -3.4676 H       0      f0    -0.0046
   1140 C            3.3706     4.9455    -4.1222 C       0      f0     0.5007
   1141 O            4.4702     5.7092    -4.1115 O       0      f0    -0.4567
   1142 H            5.5297     4.9173    -6.4636 H       0      f0     0.0752
   1143 H            5.9887     2.6050    -2.8003 H       0      f0     0.0319
   1144 C            6.0114     6.9690    -6.8277 C       0      f0     0.0343
   1145 C            6.1596     5.4685    -7.2360 C       0      f0    -0.0051
   1146 C            6.3642     2.5755    -6.2882 C      89     f89     0.1774
   1147 H            6.3686     3.6388    -5.7893 H       0      f0     0.0039
   1148 C            7.7277     7.0863    -2.2229 C       0      f0     0.0000
   1149 C            9.8582     6.8368    -6.1068 C       0      f0    -0.0122
   1150 C           11.1293     4.9705    -2.3931 C       0      f0    -0.0015
   1151 C           12.5562     4.8479    -2.9405 C       0      f0     0.0013
   1152 C           12.8802     5.3752    -5.3647 C       0      f0    -0.0091
   1153 C           13.0063     5.6348    -3.9080 C       0      f0     0.0048
   1154 C           13.8084     4.6496    -6.3295 C       0      f0     0.0099
   1155 C           14.1281     3.6349    -7.2580 C       0      f0    -0.0003
   1156 H           14.6497     2.6178    -5.3238 H       0      f0     0.0235
   1157 C           14.9779     2.7175    -6.3641 C       0      f0    -0.0116
   1158 C           16.3643     2.2912    -6.7286 C       0      f0     0.0233
   1159 C          -15.6431     9.2217    -4.4724 C       0      f0     0.0002
   1160 H          -14.9625    11.3392    -4.2762 H       0      f0     0.0176
   1161 H          -15.0233    10.1792    -6.9732 H       0      f0     0.0266
   1162 H          -15.2418     7.2686    -4.0914 H       0      f0     0.0577
   1163 C          -14.4537     8.0521    -4.1485 C       0      f0     0.0030
   1164 C          -14.5938    10.4037    -4.2530 C       0      f0    -0.0246
   1165 C          -13.5686     7.7358    -3.1582 C       0      f0     0.0078
   1166 C          -13.2387    10.1162    -3.7899 C       0      f0    -0.0014
   1167 H          -12.8798    11.8844    -6.3085 H       0      f0     0.0203
   1168 C          -12.1567     9.5785    -3.4160 C       0      f0    -0.0119
   1169 C          -12.2977    11.7482    -7.0201 C       0      f0    -0.0241
   1170 C          -11.3530     9.6366    -6.7228 C       0      f0    -0.0108
   1171 H          -11.2138     7.4450    -6.5940 H       0      f0     0.0209
   1172 C          -11.2432     8.2689    -7.1041 C       0      f0    -0.0240
   1173 C          -11.1492     9.3514    -2.6723 C       0      f0    -0.0032
   1174 H          -11.2500    10.0851    -5.7144 H       0      f0     0.0191
   1175 H           -9.2582     8.1230    -3.7976 H       0      f0     0.0162
   1176 C           -9.0546     8.3221    -2.7326 C       0      f0    -0.0169
   1177 H           -8.2765     9.4119    -6.4774 H       0      f0     0.0257
   1178 C           -7.7520    10.2977    -6.2928 C       0      f0    -0.0107
   1179 C           -6.5745    11.0451    -6.3491 C       0      f0     0.0298
   1180 H           -6.5366    10.9007    -3.3445 H       0      f0     0.0311
   1181 C           -5.6976    10.6062    -3.4181 C       0      f0    -0.0457
   1182 C           -5.5056    11.6549    -6.7627 C       0      f0     0.0163
   1183 H           -4.9640     9.7137    -3.7262 H       0      f0     0.0253
   1184 H           -4.8961    11.6986    -7.6426 H       0      f0     0.1055
   1185 H           -3.3139     8.3623    -4.5353 H       0      f0     0.0344
   1186 C           -3.3135     7.3767    -4.0599 C      42     f42    -0.0361
   1187 H           -2.3607     8.8291    -3.0774 H       0      f0     0.0232
   1188 H           -1.7527     8.0324    -5.4606 H       0      f0    -0.0001
   1189 C           -1.2989     9.2993    -3.3120 C       0      f0     0.0295
   1190 C           -0.8574     8.4370    -6.1379 C       0      f0     0.2614
   1191 O           -0.8612     9.7596    -5.9454 O       0      f0    -0.4095
   1192 C           -0.1942     8.2446    -3.2659 C       0      f0     0.0348
   1193 C            0.1606     7.7093    -7.0829 C       0      f0    -0.0971
   1194 C            0.9987     8.8294    -2.8749 C       0      f0     0.0314
   1195 H            1.0405     7.8809    -6.5809 H       0      f0     0.0716
   1196 H            4.1936     9.5244    -3.8596 H       0      f0     0.0460
   1197 C            4.2179    10.0013    -3.0330 C       0      f0    -0.0275
   1198 H            4.5861    10.0713    -6.6368 H       0      f0     0.0254
   1199 C            5.0516     9.2753    -7.0315 C       0      f0    -0.0165
   1200 C            5.4282     9.5938    -2.6221 C       0      f0    -0.0119
   1201 C            5.8138     8.1441    -6.7376 C       0      f0     0.0077
   1202 C            6.6848     8.8386    -3.1008 C      30     f30     0.0159
   1203 C            7.3996     8.9825    -4.2728 C      30     f30    -0.0083
   1204 H            7.7848     7.2061    -5.9204 H       0      f0     0.0321
   1205 C            8.7455     7.4613    -5.5296 C       0      f0    -0.0216
   1206 C            8.7678     8.0871    -4.2612 C      30     f30     0.0025
   1207 C            9.6519     8.5454    -3.3751 C      30     f30    -0.0049
   1208 H           10.3871     7.8558    -6.0864 H       0      f0     0.0128
   1209 C           11.7109     8.5564    -2.8686 C       0      f0    -0.0051
   1210 H           12.6357    11.3553    -5.2859 H       0      f0     0.0114
   1211 C           12.6522     9.5029    -2.9876 C       0      f0    -0.0063
   1212 C           13.1247    10.7648    -2.9717 C       0      f0    -0.0080
   1213 C           13.0017    11.7828    -4.2739 C       0      f0    -0.0108
   1214 H           13.9310     9.1452    -5.1435 H       0      f0     0.0189
   1215 H           13.9920     9.3782    -7.8417 H       0      f0     0.0112
   1216 C           14.7978     9.2952    -5.6833 C       0      f0    -0.0205
   1217 C           14.8946     9.1305    -7.0947 C       0      f0    -0.0044
   1218 C           15.8020     8.8253    -4.5699 C       0      f0     0.0051
   1219 C          -16.2904    15.0456    -2.4377 C       0      f0    -0.0048
   1220 H          -15.3198    14.7195    -3.1199 H       0      f0     0.0136
   1221 C          -14.5723    16.4513    -6.8402 C       0      f0    -0.0029
   1222 H          -13.5287    15.2857    -2.3316 H       0      f0     0.0241
   1223 C          -13.7152    16.3812    -2.4237 C       0      f0    -0.0225
   1224 H          -11.5741    16.3098    -7.4429 H       0      f0     0.0192
   1225 H          -11.4775    16.0224    -3.9104 H       0      f0     0.0198
   1226 C          -11.0896    15.2666    -7.2583 C       0      f0    -0.0411
   1227 C          -10.4971    15.6122    -4.0520 C       0      f0    -0.0051
   1228 C          -10.2733    14.5488    -4.7874 C       0      f0    -0.0127
   1229 H           -9.3398    14.1779    -4.6401 H       0      f0     0.0311
   1230 C           -9.3777    16.0152    -3.3955 C       0      f0    -0.0113
   1231 C           -7.8327    15.9281    -3.3457 C       0      f0     0.0044
   1232 H           -6.5052    12.7431    -5.3364 H       0      f0     0.0233
   1233 C           -6.5362    15.5180    -3.6147 C       0      f0    -0.0249
   1234 H           -7.0388    14.5758    -4.1565 H       0      f0     0.0202
   1235 C           -5.6254    12.8784    -5.8343 C       0      f0    -0.0381
   1236 C           -5.7546    16.0613    -2.5208 C       0      f0    -0.0112
   1237 C           -4.4653    13.2291    -5.2562 C       0      f0     0.0067
   1238 H           -3.6765    15.6908    -7.2194 H       0      f0     0.0138
   1239 C           -3.2373    13.7695    -5.5235 C       0      f0    -0.0560
   1240 C           -3.0347    13.5979    -7.0491 C       0      f0     0.3152
   1241 C           -2.0451    13.7694    -4.4383 C       0      f0     0.0455
   1242 C           -1.5475    14.0019    -3.4451 C       0      f0    -0.0198
   1243 C           -0.2352    14.2705    -2.9091 C       0      f0     0.0042
   1244 H            0.0596    13.1490    -6.0631 H       0      f0     0.0796
   1245 H            0.6528    12.1390    -3.2474 H       0      f0     0.0306
   1246 C            0.7918    13.1927    -3.2205 C       0      f0    -0.0115
   1247 H            1.3641    15.1571    -6.9349 H       0      f0     0.0128
   1248 C            1.1265    12.9154    -5.8789 C       0      f0    -0.0041
   1249 C            1.5930    12.9983    -4.5896 C       0      f0    -0.0145
   1250 C            2.1693    12.5576    -6.8664 C       0      f0     0.0027
   1251 C            2.6196    16.5686    -2.9912 C       0      f0     0.0208
   1252 H            2.6230    13.2820    -4.7470 H       0      f0     0.0102
   1253 C            2.5152    16.4186    -4.3615 C       0      f0    -0.0349
   1254 H            2.9619    13.0184    -6.3910 H       0      f0     0.0068
   1255 H            4.8625    14.3057    -3.2955 H       0      f0     0.0130
   1256 H            4.8744    14.8294    -7.2265 H       0      f0     0.0202
   1257 C            5.5600    14.6901    -2.6521 C       0      f0    -0.0043
   1258 C            5.3830    15.6218    -6.5909 C       0      f0    -0.0339
   1259 C            6.1317    13.2552    -2.2497 C       0      f0    -0.0585
   1260 H            6.0921    13.1220    -3.3504 H       0      f0     0.0150
   1261 C            6.1308    15.3047    -5.4992 C       0      f0    -0.0129
   1262 H            5.9621    14.2548    -5.0853 H       0      f0     0.0065
   1263 C            7.0194    16.4115    -5.0220 C       0      f0    -0.0014
   1264 H            7.3771    14.6642    -3.5754 H       0      f0     0.0158
   1265 C            7.8952    15.4113    -2.8733 C       0      f0    -0.0100
   1266 C            8.1321    16.5307    -5.8564 C       0      f0     0.0138
   1267 H            8.0020    12.5227    -2.6377 H       0      f0     0.0155
   1268 H            9.0677    14.2078    -5.7022 H       0      f0     0.0222
   1269 C            9.2397    16.7747    -6.3225 C       0      f0     0.0070
   1270 C            9.7022    14.1042    -4.8062 C       0      f0    -0.0097
   1271 C           10.1662    13.0168    -4.2803 C       0      f0    -0.0058
   1272 C           10.3835   -16.7441    -5.1795 C       0      f0    -0.0008
   1273 C           10.9100    15.3451    -4.9765 C       0      f0     0.0183
   1274 H           10.9020    12.3051    -3.5208 H       0      f0     0.0430
   1275 C           12.1247    15.4471    -4.7627 C      92     f92     0.0102
   1276 C           13.0574    15.9247    -3.6562 C      92     f92     0.0391
   1277 C           13.8330    12.7843    -4.6722 C       0      f0    -0.0066
   1278 C           13.8580    15.3115    -4.8841 C      92     f92    -0.0098
   1279 H           14.2168    12.1334    -2.4613 H       0      f0     0.0256
   1280 C           14.4546    14.0992    -3.9101 C       0      f0     0.0187
   1281 H           14.4188    12.5329    -6.7978 H       0      f0     0.0219
   1282 C           15.7394    13.9161    -3.0158 C       0      f0    -0.0196
   1283 H          -16.4202    13.3735    -3.2017 H       0      f0     0.0195
   1284 C          -15.6199   -16.5114     1.0371 C       0      f0    -0.0481
   1285 C          -15.5368    16.7361    -0.2474 C       0      f0    -0.0068
   1286 C          -15.5934   -13.3246    -0.4318 C       0      f0    -0.0016
   1287 H          -14.5926   -14.1422    -2.0216 H       0      f0     0.0173
   1288 H          -14.6732   -15.8370     1.3818 H       0      f0     0.0311
   1289 C          -14.3946   -13.5824    -1.1654 C       0      f0    -0.0238
   1290 C          -14.2513   -16.6584    -1.0354 C       0      f0    -0.0018
   1291 C          -13.4256   -14.5890    -0.3664 C       0      f0    -0.0024
   1292 C          -13.7674   -14.0541     0.9022 C       0      f0    -0.0240
   1293 H          -13.7119   -14.5682     1.8884 H       0      f0     0.0192
   1294 H          -13.2512   -12.9075    -2.4626 H       0      f0     0.0415
   1295 C          -12.9450   -16.1398    -0.6226 C       0      f0    -0.0232
   1296 C          -13.0847   -12.7483     1.0634 C       0      f0     0.0012
   1297 C          -12.1580   -16.3623     2.4478 C       0      f0    -0.0291
   1298 H          -12.8149    16.3866    -0.0134 H       0      f0     0.0190
   1299 C          -11.1885   -16.3905     1.4901 C       0      f0     0.0124
   1300 C          -10.1061   -16.1643     0.6053 C       0      f0    -0.0265
   1301 H           -9.9741    16.4586    -0.2272 H       0      f0     0.0351
   1302 C          -10.0232   -12.7536     1.0150 C       0      f0    -0.0116
   1303 C           -9.5778   -14.8365     0.8397 C       0      f0     0.0038
   1304 C           -9.1772   -13.7118     1.7196 C       0      f0    -0.0049
   1305 C           -8.5111   -14.8308    -0.0986 C       0      f0    -0.0141
   1306 C           -7.7661   -15.0971    -1.0157 C       0      f0    -0.0016
   1307 C           -6.9891   -15.4902    -2.2226 C       0      f0    -0.0426
   1308 H           -6.2146   -12.5506     1.9023 H       0      f0     0.0167
   1309 H           -6.8909   -15.2657     1.1239 H       0      f0     0.0141
   1310 H           -6.0284   -15.7504    -1.8730 H       0      f0     0.0251
   1311 C           -4.2317   -16.3655    -1.0632 C       0      f0    -0.0204
   1312 C           -4.1238   -14.9694    -1.0072 C       0      f0     0.0095
   1313 C           -3.9777   -13.9031    -0.2378 C       0      f0    -0.0235
   1314 C           -3.8181   -12.7909    -1.1682 C       0      f0     0.0036
   1315 H           -3.4971   -13.9460     0.7769 H       0      f0     0.0215
   1316 C           -1.1594   -14.9855     1.7865 C       0      f0    -0.0514
   1317 C           -0.8623   -15.9758     0.8540 C      93     f93     0.1520
   1318 H           -0.2048   -13.8161    -1.1279 H       0      f0     0.0498
   1319 C           -0.7789   -13.5079     1.5690 C       0      f0    -0.0101
   1320 C           -0.7477   -12.2676     1.6951 C       0      f0     0.0008
   1321 O           -0.1537   -16.3348    -0.5184 O      93     f93    -0.4479
   1322 C           -0.3846   -12.7225    -1.5806 C       0      f0    -0.0126
   1323 H           -0.2594   -14.0000     0.5464 H       0      f0     0.0328
   1324 C            2.1344   -13.0938     0.7530 C       0      f0     0.0006
   1325 C            2.0949   -14.5271     0.4988 C       0      f0    -0.0257
   1326 H            1.4829   -15.2517    -0.3635 H       0      f0     0.0833
   1327 C            2.0229   -12.1825     1.5135 C       0      f0    -0.0085
   1328 C            3.0038   -15.0150     1.4162 C       0      f0     0.0048
   1329 C            6.0120   -16.1183     0.1843 C       0      f0    -0.0222
   1330 H            5.8318   -15.0017    -0.5392 H       0      f0     0.0129
   1331 H            6.7287   -12.0827     1.1735 H       0      f0     0.0167
   1332 C            7.7032   -12.6483     1.3034 C      43     f43    -0.0177
   1333 H            7.2678   -14.3476     0.2104 H       0      f0     0.0141
   1334 C            8.0910   -13.8898     0.7962 C      43     f43    -0.0174
   1335 C            8.8034   -11.8800     2.3589 C      43     f43    -0.0131
   1336 C            9.2750   -14.5049     1.4249 C      43     f43    -0.0115
   1337 C            9.4599   -13.2983     2.3477 C      43     f43     0.0098
   1338 H            9.9236   -15.2722     0.6959 H       0      f0     0.0155
   1339 C           12.0923   -15.3566    -2.2660 C       0      f0     0.0052
   1340 C           12.0434   -16.5455    -1.5384 C       0      f0    -0.0302
   1341 H           12.3931   -13.7148    -1.4505 H       0      f0     0.0259
   1342 C           15.0805   -16.2580     2.3069 C       0      f0     0.0622
   1343 C           14.9542   -14.8782     2.0211 C       0      f0    -0.0133
   1344 C           15.9685   -13.7810     1.7445 C       0      f0    -0.0025
   1345 C           16.1939   -12.9799     0.4084 C       0      f0    -0.0072
   1346 C          -16.0353   -10.7852     0.1359 C       0      f0    -0.0043
   1347 C          -15.7404    -8.3597    -1.7789 C       0      f0    -0.0292
   1348 C          -15.1596    -9.9124    -0.1648 C       0      f0     0.0254
   1349 C          -15.4537    -8.5936    -0.4437 C       0      f0    -0.0178
   1350 H          -14.8863    -7.7999     0.0202 H       0      f0     0.0313
   1351 C          -12.0606   -11.7645     1.1024 C       0      f0    -0.0011
   1352 H          -12.1814   -11.3988     2.1782 H       0      f0     0.0395
   1353 H          -11.1283    -8.5197    -0.3187 H       0      f0     0.0608
   1354 C          -10.6834   -11.8091     0.4012 C       0      f0     0.0050
   1355 C          -10.1659   -10.5716    -0.1772 C       0      f0     0.0275
   1356 C          -10.2063    -9.0394    -0.0715 C       0      f0     0.0054
   1357 C           -9.1381    -8.1994    -0.4463 C       0      f0     0.0080
   1358 C           -8.6462   -10.6832    -0.3787 C       0      f0    -0.0675
   1359 H           -8.3934    -9.9490     0.2758 H       0      f0     0.0304
   1360 H           -8.6119   -10.4488    -1.4422 H       0      f0     0.0429
   1361 C           -8.2281    -7.4988    -0.5732 C       0      f0     0.0077
   1362 H           -8.4482   -11.7120     0.0438 H       0      f0     0.0266
   1363 H           -6.2812    -7.5958     1.5246 H       0      f0     0.0141
   1364 H           -5.7728    -8.9155    -0.2945 H       0      f0     0.0154
   1365 C           -5.8241   -10.7791     0.8144 C       0      f0     0.0063
   1366 C           -5.8421   -11.4502     1.7834 C       0      f0    -0.0236
   1367 C           -5.7864   -10.0747    -0.2485 C       0      f0    -0.0267
   1368 H           -4.1571    -8.6250     0.7999 H       0      f0     0.0130
   1369 C           -4.1862   -10.2599    -0.9837 C       0      f0    -0.0224
   1370 C           -3.9842   -10.1209     2.2292 C       0      f0     0.0010
   1371 C           -4.0314    -8.7488     1.9540 C       0      f0    -0.0228
   1372 H           -3.5382    -9.3837    -1.0710 H       0      f0     0.0224
   1373 C           -3.6926   -11.4363    -1.4097 C       0      f0    -0.0005
   1374 C           -2.6489    -8.1455     2.0226 C       0      f0    -0.0093
   1375 H           -1.8347    -7.5072     0.1660 H       0      f0     0.0108
   1376 H           -2.5719    -8.7361     0.8891 H       0      f0     0.0107
   1377 H           -1.2360    -9.9390     0.1311 H       0      f0     0.0171
   1378 C           -1.1543    -9.0388    -1.8171 C       0      f0     0.0167
   1379 C           -1.1567    -7.9566    -0.6360 C       0      f0    -0.0065
   1380 C           -0.6289   -11.4957    -1.1488 C       0      f0     0.0069
   1381 C           -0.8788   -10.1302    -1.0105 C       0      f0    -0.0057
   1382 C           -0.6032   -10.9272     1.7794 C       0      f0    -0.0392
   1383 C            0.1563    -7.5885    -0.0833 C       0      f0    -0.0053
   1384 H            0.5812   -10.4262     1.2716 H       0      f0     0.0264
   1385 C            1.0375    -8.4504     0.9346 C      19     f19     0.0092
   1386 C            1.4356    -7.2150     1.7056 C      19     f19    -0.0287
   1387 C            1.8907    -9.1210     0.0104 C      19     f19    -0.0348
   1388 C            2.4523    -8.6665    -1.4055 C       9      f9     0.2498
   1389 C            2.9851   -10.0353     1.8793 C      19     f19     0.0099
   1390 C            3.2307    -9.2679     0.6212 C      19     f19    -0.0111
   1391 C            3.9587    -8.5563    -1.4999 C       9      f9    -0.0417
   1392 C            4.4895    -8.8237    -0.2030 C       9      f9    -0.0034
   1393 C            4.3636   -10.8982     1.7631 C       9      f9    -0.0030
   1394 C            5.3419    -9.9931     1.4566 C       9      f9    -0.0135
   1395 C            5.7795    -9.2354     0.3644 C       9      f9    -0.0002
   1396 C            7.3038    -8.7465     0.5471 C       0      f0    -0.0390
   1397 H            7.6164    -7.2881     2.3331 H       0      f0     0.0218
   1398 H            7.5784    -8.7071     1.5235 H       0      f0     0.0196
   1399 H            7.0208    -7.6599     0.0436 H       0      f0     0.0189
   1400 H            8.0820   -10.4018     0.2738 H       0      f0     0.0220
   1401 C            8.2569    -9.5012    -0.4078 C       0      f0    -0.0203
   1402 C            8.5734    -7.3444     2.0627 C      20     f20    -0.0245
   1403 H            8.3452   -11.7529    -2.2256 H       0      f0     0.0261
   1404 H            9.4807    -9.3116    -1.8777 H       0      f0     0.0395
   1405 C            9.5977    -9.0275    -0.8385 C       0      f0     0.0074
   1406 C            9.5412    -7.7191    -0.2100 C       0      f0     0.0185
   1407 H            9.5165    -9.9034     1.8141 H       0      f0     0.0316
   1408 C            9.8606   -10.8670     1.8903 C       0      f0    -0.0294
   1409 H           10.8659   -11.3541     1.8903 H       0      f0     0.0779
   1410 O           12.9249   -10.4040     1.5391 O      94     f94    -0.4462
   1411 C           13.2538    -8.3312    -2.4181 C       0      f0     0.0045
   1412 H           13.6016   -10.5163    -0.7062 H       0      f0     0.0632
   1413 C           13.7276    -7.5629    -1.7048 C       0      f0     0.0236
   1414 C           14.1300   -10.8889     2.3925 C      94     f94     0.1443
   1415 C           14.3679   -11.2137    -1.1183 C       0      f0    -0.0247
   1416 C           14.2188   -11.2747     1.1129 C      94     f94     0.1086
   1417 C           14.6023   -11.7585    -2.2201 C       0      f0    -0.0010
   1418 H           15.0580    -7.9427     0.2175 H       0      f0     0.0266
   1419 C           15.4577   -11.7132    -0.0867 C       0      f0    -0.0205
   1420 C          -15.4908    -4.4139    -0.2163 C       0      f0    -0.0084
   1421 C          -14.4459    -3.5228    -0.7000 C       0      f0    -0.0127
   1422 C          -14.2696    -6.4824    -2.0925 C       0      f0    -0.0089
   1423 H          -13.1654    -6.3925     2.6474 H       0      f0    -0.0016
   1424 H          -13.2539    -4.5185    -1.5314 H       0      f0     0.0251
   1425 C          -12.6560    -2.8239     0.5800 C       0      f0     0.0140
   1426 C          -13.0917    -5.4565    -2.1949 C       0      f0    -0.0015
   1427 C          -12.1670    -3.6574     1.5326 C       0      f0    -0.0088
   1428 C          -12.0696    -6.9323     2.1976 C       0      f0     0.3044
   1429 H          -11.0013    -4.8904     0.3030 H       0      f0     0.0613
   1430 C          -10.6852    -6.0817     1.7463 C       1      f1    -0.0434
   1431 C          -10.8612    -4.6554     1.3353 C       1      f1    -0.0159
   1432 C           -9.4739    -4.0082     1.8436 C       1      f1     0.0213
   1433 C           -9.4264    -6.3531     1.3010 C       1      f1     0.0362
   1434 O           -9.3009    -3.5568    -1.3264 O      95     f95    -0.4319
   1435 C           -8.0610    -2.6858    -1.3583 C      95     f95     0.1415
   1436 C           -8.2446    -4.4543     1.9515 C       1      f1    -0.0019
   1437 C           -7.9261    -5.7697     1.1666 C       1      f1     0.0137
   1438 C           -7.1103    -6.8745    -0.8432 C       1      f1     0.0138
   1439 C           -6.8206    -6.7798     0.9166 C       1      f1    -0.0251
   1440 C           -6.8048    -4.2235     2.2420 C       1      f1    -0.0197
   1441 H           -6.9053    -3.1692     2.6234 H       0      f0     0.0147
   1442 C           -6.3174    -6.8116    -1.9235 C       1      f1    -0.0064
   1443 C           -5.6760    -5.7149     0.8938 C       1      f1     0.0011
   1444 C           -5.4201    -4.7806     2.0369 C       1      f1     0.0028
   1445 H           -4.7748    -3.6804     0.0456 H       0      f0     0.0095
   1446 C           -5.0703    -6.1438    -1.2706 C       1      f1    -0.0066
   1447 C           -4.5357    -5.9237    -0.0342 C       1      f1    -0.0314
   1448 C           -4.1606    -2.6758     0.2842 C       0      f0     0.0327
   1449 H           -3.5711    -5.9833     0.0196 H       0      f0     0.0147
   1450 C           -2.7702    -2.9245    -0.2162 C       0      f0     0.0082
   1451 H           -1.9805    -4.1767     1.5015 H       0      f0     0.0293
   1452 H           -2.2225    -5.4519    -1.6097 H       0      f0    -0.0027
   1453 C           -1.7821    -3.5770     0.4176 C       0      f0    -0.0080
   1454 C           -0.5574    -4.0046    -0.4774 C       0      f0     0.0060
   1455 H            0.5803    -6.5699     0.0102 H       0      f0     0.0164
   1456 C            0.6001    -4.0914    -1.1258 C       0      f0    -0.0184
   1457 C            1.0803    -3.1770     2.2338 C       0      f0    -0.0083
   1458 H            0.3818    -7.0645     1.6580 H       0      f0     0.0199
   1459 H            1.5618    -3.6577    -1.3211 H       0      f0     0.0249
   1460 C            1.0693    -2.2823     0.6751 C       0      f0     0.0033
   1461 H            4.9744    -4.9207     0.6067 H       0      f0     0.0420
   1462 C            5.6014    -5.4769     1.2339 C       0      f0    -0.0163
   1463 C            7.1319    -5.5139     0.9872 C       0      f0    -0.0098
   1464 H            7.6842    -5.7049     0.0888 H       0      f0     0.0206
   1465 C            8.4196    -5.6767     1.9003 C      20     f20    -0.0126
   1466 C            8.4649    -2.5037    -2.1926 C       0      f0     0.0043
   1467 H            9.0873    -5.1397     1.0018 H       0      f0     0.0190
   1468 C            9.7908    -6.8773     0.7773 C       0      f0    -0.0048
   1469 H           10.8784    -4.7609     0.0963 H       0      f0     0.0251
   1470 C           11.9855    -4.5538     0.2366 C       0      f0    -0.0080
   1471 C           12.5555    -5.3800     1.1180 C       0      f0     0.0044
   1472 C           12.8148    -3.2974    -0.1708 C       0      f0    -0.0096
   1473 C           13.1389    -5.9969     2.0732 C       0      f0     0.0103
   1474 C           14.3835    -3.0969    -0.2976 C       0      f0     0.0035
   1475 C           14.2623    -6.8125    -0.6856 C       0      f0     0.0058
   1476 C           15.2845    -2.6794     0.6931 C       0      f0    -0.0031
   1477 C           15.4586    -6.3810    -0.1377 C       0      f0    -0.0117
   1478 C           15.4251    -3.7130     1.9760 C       0      f0    -0.0013
   1479 C           16.1294    -5.1920     1.7865 C       0      f0    -0.0007
   1480 H          -16.3482    -2.5327    -2.2579 H       0      f0     0.0213
   1481 C           16.3764    -5.3259     0.3248 C       0      f0    -0.0040
   1482 C          -16.3578    -1.8067     0.2929 C       0      f0    -0.0222
   1483 H           16.0088     1.1017    -0.4798 H       0      f0     0.0159
   1484 C          -15.6966     1.1175    -0.7036 C       0      f0    -0.0286
   1485 C          -14.7342     0.3777    -1.2268 C       0      f0    -0.0005
   1486 C          -14.9138    -2.1989     0.0569 C       0      f0     0.0065
   1487 C          -14.7071     2.3936     1.1557 C       0      f0     0.0191
   1488 H          -14.2772     0.3245     0.5564 H       0      f0     0.0220
   1489 C          -14.1551    -0.6951    -1.9116 C       0      f0    -0.0263
   1490 C          -13.9502     1.3202     1.1172 C       0      f0     0.0030
   1491 H          -14.0133    -1.2000     1.6225 H       0      f0     0.0459
   1492 C          -13.9475    -2.0248     1.0404 C       0      f0    -0.0285
   1493 H          -12.7615     1.5338     1.4600 H       0      f0     0.0388
   1494 C          -12.7233    -0.5777    -1.6477 C       0      f0    -0.0003
   1495 C          -11.5961    -1.1229    -1.6156 C       0      f0    -0.0172
   1496 C          -10.1376    -0.9423    -1.3421 C       0      f0    -0.0301
   1497 H           -9.7834     1.9058    -0.6153 H       0      f0     0.0183
   1498 C           -9.2714    -0.2575    -2.3218 C      88     f88    -0.0115
   1499 C           -9.2243    -2.0105    -0.9948 C      95     f95     0.1199
   1500 H           -9.4448     0.0652     1.2041 H       0      f0     0.0336
   1501 C           -8.8660     1.1126     1.4756 C       0      f0    -0.0673
   1502 C           -8.5542     2.1259     1.8922 C      60     f60     0.1898
   1503 C           -8.4146     0.8035    -1.9785 C      88     f88     0.0127
   1504 H           -7.5110     1.2092    -0.9187 H       0      f0     0.0239
   1505 H           -6.9402    -1.0450     2.7203 H       0      f0     0.0198
   1506 C           -6.2078    -1.3784    -2.3399 C       0      f0    -0.0094
   1507 H           -6.1208    -0.2780     1.0177 H       0      f0     0.0312
   1508 C           -6.1562    -0.2633     2.0300 C       0      f0    -0.0706
   1509 C           -5.7689    -0.2362    -1.8243 C       0      f0    -0.0189
   1510 C           -5.2470    -0.8588    -0.7489 C       0      f0     0.0167
   1511 C           -4.8512    -1.3985     0.4804 C       0      f0     0.0055
   1512 O           -4.8331     1.8886     1.7637 O       0      f0    -0.7330
   1513 C           -4.9710    -1.0715     1.9324 C      96     f96     0.1624
   1514 O           -3.4882    -1.7991     2.5374 O      96     f96    -0.4214
   1515 H           -2.7728     1.5905     2.5548 H       0      f0     0.0694
   1516 H           -2.3364    -2.4267    -1.3853 H       0      f0     0.0324
   1517 O           -1.6036     1.0195    -0.8335 O       0      f0    -0.5418
   1518 C           -1.6319     0.2981     1.5056 C       0      f0    -0.0131
   1519 H           -1.0961     1.9761    -1.0283 H       0      f0     0.2225
   1520 C           -1.0110     0.4507     0.4845 C       0      f0     0.2227
   1521 C            0.0420    -0.2298    -0.2519 C       0      f0    -0.0362
   1522 C            0.3499    -1.2727     0.6909 C       0      f0    -0.0101
   1523 H           -0.5103    -0.5978    -1.2159 H       0      f0     0.0792
   1524 H            1.5676    -1.5207    -2.2553 H       0      f0     0.0205
   1525 H            2.2243    -0.5893     1.8111 H       0      f0     0.0215
   1526 C            2.5067    -1.7732     0.2779 C       0      f0    -0.0298
   1527 H            2.9606     1.7072    -1.6086 H       0      f0     0.0385
   1528 H            3.0496     1.7506     0.5586 H       0      f0     0.0197
   1529 C            3.3414     1.8240    -0.6466 C       0      f0    -0.0378
   1530 C            3.5854    -1.0337     0.1063 C      97     f97     0.1262
   1531 C            4.2004     0.0254     1.7510 C       0      f0    -0.0903
   1532 C            4.8160     2.0374    -0.2222 C      98     f98    -0.0136
   1533 C            5.1019    -0.6260     1.0007 C      97     f97     0.2374
   1534 H            5.1959     1.9615     0.6668 H       0      f0     0.0164
   1535 O            5.2177    -1.5540    -0.1134 O      97     f97    -0.4510
   1536 C            5.3832     2.1363    -2.0003 C      98     f98    -0.0019
   1537 C            6.6417     1.3428    -1.4965 C      44     f44    -0.0070
   1538 C            6.7656    -0.1353    -2.1060 C      44     f44     0.0397
   1539 C            7.5922     1.7057    -0.5482 C      44     f44    -0.0104
   1540 H            8.2858     0.1648     1.1625 H       0      f0     0.0306
   1541 C            7.9691    -0.3201    -1.2113 C      44     f44     0.0051
   1542 C            8.4373     0.4905     0.1017 C      44     f44    -0.0142
   1543 C            8.5214    -1.6284    -1.2568 C       0      f0     0.0181
   1544 C            9.5281     1.6858     2.1732 C       0      f0    -0.0164
   1545 C           10.1335    -1.9921    -0.5406 C       0      f0    -0.0069
   1546 C           10.4297    -1.1065     0.3767 C       0      f0    -0.0024
   1547 C           10.3973     1.1358     1.2639 C       0      f0    -0.0123
   1548 H           11.1045     1.7084     0.5737 H       0      f0     0.0163
   1549 C           10.8064    -0.3702     1.4282 C       0      f0    -0.0253
   1550 H           10.9205     1.9519    -0.9352 H       0      f0     0.0112
   1551 H           10.6741     0.4797    -1.6732 H       0      f0     0.0149
   1552 H           11.0947    -1.0863     1.9928 H       0      f0     0.0154
   1553 H           12.2758    -2.2400    -0.2795 H       0      f0     0.0184
   1554 H           13.2175     1.8320    -0.7222 H       0      f0     0.0164
   1555 H           15.9259     1.0200    -2.2109 H       0      f0     0.0207
   1556 H           16.1562    -0.9548     0.7206 H       0      f0     0.0249
   1557 C          -16.1470     5.6601     2.2485 C       0      f0    -0.0089
   1558 C          -15.4451     3.5470     1.3570 C       0      f0    -0.0202
   1559 C          -15.0482     4.7055     2.1490 C       0      f0    -0.0020
   1560 H          -12.7534     3.1253     1.7333 H       0      f0    -0.0009
   1561 C          -12.7525     7.1220    -2.0527 C       0      f0    -0.0102
   1562 H          -11.9409     7.0073    -2.7037 H       0      f0     0.0261
   1563 C          -11.5100     3.6063     1.9433 C       0      f0     0.3323
   1564 H          -11.0150     7.3161    -0.3347 H       0      f0     0.0284
   1565 C          -10.7346     2.9783    -1.7997 C       0      f0    -0.0045
   1566 C          -10.7031     2.8275     1.0039 C       0      f0    -0.0619
   1567 C          -10.5480     2.7215    -0.4551 C       0      f0    -0.0019
   1568 H           -7.3036     3.7369     0.7048 H       0      f0     0.0197
   1569 C           -7.9498     3.7254     1.6071 C      60     f60    -0.0690
   1570 H           -6.3672     4.5200    -2.8159 H       0      f0     0.0236
   1571 C           -6.1745     6.2321    -1.5250 C       0      f0    -0.0172
   1572 H           -5.5124     4.3161    -0.1038 H       0      f0     0.0159
   1573 H           -5.5100     2.1430     1.6140 H       0      f0     0.3673
   1574 C           -5.2545     5.1917    -0.9689 C       0      f0    -0.0119
   1575 C           -4.7931     4.5108    -2.1392 C       0      f0    -0.0532
   1576 C           -4.0189     3.2576     2.0134 C       0      f0     0.2254
   1577 C           -3.3672     4.2104     1.4637 C       0      f0    -0.0814
   1578 C           -2.3727     4.6180     0.5388 C       0      f0     0.0069
   1579 H           -2.7977     5.1158    -0.2235 H       0      f0     0.0455
   1580 C           -1.9664     5.8933     1.5398 C       0      f0    -0.0019
   1581 C           -2.0235     7.2329     1.4108 C      31     f31    -0.0694
   1582 H           -1.5540     3.8187     0.7260 H       0      f0     0.0348
   1583 O           -0.5914     6.7099    -0.8574 O       0      f0    -0.5150
   1584 H            0.7584     2.4959    -2.1565 H       0      f0     0.0225
   1585 C            0.8232     2.6705     2.1694 C       0      f0    -0.0100
   1586 H            0.9076     7.4355     2.5445 H       0      f0     0.0241
   1587 C            1.4250     3.2659     0.9757 C       0      f0     0.0009
   1588 C            2.1961     3.1687    -0.0243 C       0      f0    -0.0291
   1589 H            2.2281     3.7465    -0.8818 H       0      f0     0.0375
   1590 C            4.6032     6.6410    -0.2155 C       0      f0     0.0141
   1591 C            5.0299     5.5871    -0.3891 C       0      f0     0.0019
   1592 C            5.4235     2.9750    -0.9560 C      98     f98     0.0019
   1593 C            5.8560     4.3350    -0.8182 C       0      f0     0.0009
   1594 C            7.0761     4.4714    -1.7764 C       0      f0    -0.0149
   1595 H            8.2047     4.0255    -1.8884 H       0      f0     0.0159
   1596 C            7.2940     5.7707    -2.2816 C       0      f0     0.0317
   1597 H            9.4823     2.9308     2.1181 H       0      f0     0.0188
   1598 C            9.9924     6.6804     1.7779 C       0      f0    -0.0061
   1599 C           10.4625     3.5929    -2.3225 C       0      f0    -0.0022
   1600 C           10.7469     6.2247    -1.9597 C       0      f0     0.0001
   1601 C           11.3198     3.1905    -1.2816 C       0      f0    -0.0124
   1602 C           11.9574     3.6928    -0.0131 C      32     f32     0.0010
   1603 C           12.2650     4.5013     0.8862 C      32     f32     0.0025
   1604 C           13.1915     2.7958    -0.1400 C      32     f32    -0.0097
   1605 C           13.3013     4.5716     1.5057 C      32     f32     0.0014
   1606 C           14.3414     2.8620     0.4430 C      32     f32    -0.0204
   1607 C           14.6436     4.3387     1.0368 C      32     f32    -0.0046
   1608 H           15.2521     2.3252     0.7365 H       0      f0     0.0169
   1609 C           15.5971     5.1458     1.7102 C       0      f0    -0.0104
   1610 H          -16.3820     3.5942     1.2390 H       0      f0     0.0261
   1611 H          -15.1809    10.4600    -1.1118 H       0      f0     0.0076
   1612 C          -14.7625    11.4511    -0.4804 C       0      f0     0.0396
   1613 C          -13.7340    11.7439    -0.4027 C       0      f0    -0.0009
   1614 H          -13.4625     9.3745    -0.1740 H       0      f0     0.0225
   1615 H          -12.6492     9.5638    -1.6027 H       0      f0     0.0277
   1616 C          -12.5274     9.1990    -0.7604 C       0      f0    -0.0412
   1617 C          -12.0569     7.5718    -0.8194 C       0      f0    -0.0089
   1618 C          -11.5546     9.7870     0.2581 C       0      f0     0.0028
   1619 C          -10.8959    10.8338     1.0278 C       0      f0    -0.0253
   1620 H          -10.1832    10.0800     1.5478 H       0      f0     0.0225
   1621 C           -9.8839     9.2152    -1.9722 C       0      f0    -0.0188
   1622 H           -9.5832     9.6756    -1.1575 H       0      f0     0.0261
   1623 H           -9.1404    11.6321     0.3791 H       0      f0     0.0415
   1624 H           -8.0178     7.5021    -0.9337 H       0      f0     0.0197
   1625 C           -8.2949     7.2651    -1.9858 C       0      f0    -0.0186
   1626 C           -8.0009     9.9751     1.1940 C       0      f0    -0.0099
   1627 C           -8.0195    11.2790     0.6365 C       0      f0    -0.0026
   1628 C           -7.1852     8.9228     1.8729 C       0      f0    -0.0085
   1629 C           -6.3443    11.9993     0.9899 C       0      f0     0.0067
   1630 H           -5.3000    10.7422    -1.6892 H       0      f0     0.0203
   1631 H           -5.2027     7.6053    -1.0633 H       0      f0     0.0177
   1632 C           -4.9670    11.3765     1.5483 C       0      f0    -0.0285
   1633 C           -4.6075    11.0185    -2.5186 C       0      f0    -0.0138
   1634 H           -5.2007    10.3309     1.0828 H       0      f0     0.0189
   1635 C           -4.0625     7.8369    -1.3435 C       0      f0    -0.0163
   1636 C           -3.1832     8.8639    -0.8644 C       0      f0    -0.0045
   1637 C           -3.4542    10.9962    -2.2452 C       0      f0     0.0036
   1638 C           -2.3272     9.5694    -0.3477 C       0      f0     0.0082
   1639 H           -2.8663    11.3853     1.7675 H       0      f0     0.0170
   1640 C           -2.1178    11.0723    -1.7043 C       0      f0    -0.0129
   1641 H           -1.8876    11.6181    -0.6566 H       0      f0     0.0140
   1642 C           -1.3665     8.8257     0.4444 C      31     f31    -0.0587
   1643 C           -1.1825     7.3228     0.0119 C      31     f31     0.3544
   1644 C           -0.9512    10.2419    -2.3099 C       0      f0    -0.0131
   1645 C           -0.7606     9.6681     1.5241 C      31     f31    -0.0027
   1646 H            0.0347    10.3113    -2.7866 H       0      f0     0.0294
   1647 H            0.3895     9.7553     1.5062 H       0      f0     0.0188
   1648 C            2.0404     9.4267    -2.1908 C       0      f0    -0.0002
   1649 C            2.4510    11.5268    -0.3551 C       0      f0     0.0031
   1650 C            2.7487    10.2795     2.1913 C       0      f0    -0.0153
   1651 C            3.0415     8.6516     2.1340 C       0      f0     0.0350
   1652 C            2.9837    10.9302     0.9020 C       0      f0    -0.0002
   1653 H            3.0955     8.6334    -0.0111 H       0      f0     0.0247
   1654 C            3.1708     9.8557    -1.9641 C       0      f0     0.0071
   1655 C            3.5357    11.3230    -1.3606 C       0      f0    -0.0433
   1656 C            3.8767     7.6675     0.1835 C       0      f0    -0.0075
   1657 C            4.2295     8.2831     1.5090 C       0      f0    -0.0161
   1658 H            4.2605    11.5074    -0.6237 H       0      f0     0.0791
   1659 H            4.8195     9.4292     1.4481 H       0      f0     0.0250
   1660 H            5.8193     9.3181    -1.6078 H       0      f0     0.0206
   1661 H            7.2192     9.7142     0.4304 H       0      f0     0.0373
   1662 C            7.9367     8.4264    -1.9976 C      30     f30    -0.0075
   1663 C            8.1821     9.4423     0.6332 C       0      f0    -0.0567
   1664 H            8.7065    10.4139    -2.7541 H       0      f0     0.0326
   1665 C            8.7042     8.8318     1.9351 C       0      f0     0.0071
   1666 H            9.1952     6.8108     0.3060 H       0      f0     0.0214
   1667 C            9.2090    10.2246    -0.2245 C       0      f0     0.2311
   1668 C            9.0355     9.3158    -2.1693 C      30     f30    -0.0068
   1669 O            9.2487    11.8040    -0.3084 O       0      f0    -0.6852
   1670 C            9.6067     7.8591     1.1345 C       0      f0    -0.0151
   1671 H           10.0594    12.1174    -0.1849 H       0      f0     0.3297
   1672 C            9.9716     8.9097    -0.8352 C       0      f0    -0.0490
   1673 C           10.7587     7.6107    -2.7975 C       0      f0     0.0025
   1674 H           11.0129     9.8725    -0.9624 H       0      f0     0.0210
   1675 H           11.7823    11.1235    -0.7237 H       0      f0     0.0216
   1676 H           12.1859    10.6710     2.9497 H       0      f0     0.0161
   1677 C           12.0142    11.4892     2.1780 C       0      f0    -0.0408
   1678 C           13.3904    11.9214    -2.0023 C       0      f0     0.0169
   1679 C          -16.3019    15.7482    -1.2736 C       0      f0    -0.0133
   1680 O          -15.5628    12.6244     1.7857 O       0      f0    -0.4603
   1681 C          -15.6066    15.6690     1.7401 C      99     f99     0.1531
   1682 C          -14.1175    12.5890     2.3380 C       0      f0     0.2650
   1683 C          -13.1227    12.4304     1.9941 C       0      f0    -0.0853
   1684 C          -12.2600    12.5855    -0.1226 C       0      f0     0.0210
   1685 C          -11.5957    12.3517     1.3127 C       0      f0     0.0218
   1686 C          -11.9929    14.0778    -0.7285 C       0      f0    -0.0463
   1687 C          -10.5728    14.5184    -0.2662 C       0      f0     0.3121
   1688 H           -9.2304    15.9650    -2.1035 H       0      f0     0.0771
   1689 O           -9.4572    14.3593    -0.8064 O       0      f0    -0.5085
   1690 H           -8.4063    16.4327     1.6153 H       0      f0     0.0255
   1691 C           -8.0021    15.3379     1.8400 C      45     f45     0.0083
   1692 H           -7.4939    15.7749    -0.4728 H       0      f0     0.0500
   1693 C           -6.7720    14.8452     0.8049 C      45     f45     0.0002
   1694 C           -6.5547    13.4122     1.4874 C      45     f45     0.0115
   1695 C           -6.5764    15.0242    -0.6410 C       0      f0     0.0167
   1696 C           -5.6912    14.8695    -1.5996 C       0      f0    -0.0166
   1697 H           -4.9972    14.0758    -1.5512 H       0      f0     0.0205
   1698 C           -3.6266    11.9995     1.3765 C       0      f0    -0.0179
   1699 H           -3.8663    16.3487    -0.2939 H       0      f0     0.0167
   1700 C           -3.0562    13.3897     1.2289 C       0      f0    -0.0040
   1701 C           -2.3765    14.5480     1.2941 C       0      f0    -0.0129
   1702 C           -1.2519    16.2160     0.2207 C      93     f93     0.1217
   1703 C           -0.8585    15.1258     1.3152 C       0      f0    -0.0256
   1704 H           -0.6916    14.5582    -2.0032 H       0      f0     0.0363
   1705 C            0.3823    14.6263     2.0402 C       0      f0     0.0097
   1706 H            1.6092    15.2458    -0.0765 H       0      f0     0.0460
   1707 C            1.8791    14.9588     1.1229 C       0      f0    -0.0153
   1708 C            1.9054    13.4222     0.5691 C       0      f0    -0.0125
   1709 C            1.7391    12.8434    -0.6589 C       0      f0     0.0037
   1710 H            2.3135    14.4332    -1.8154 H       0      f0     0.0344
   1711 C            1.7835    13.5576    -2.1060 C       0      f0    -0.0211
   1712 H            2.2813   -16.7604    -0.9243 H       0      f0     0.0518
   1713 H            2.5728    12.9511     1.3624 H       0      f0     0.0418
   1714 C            2.9024    16.3208    -1.6636 C       0      f0    -0.0256
   1715 H            3.8172    12.0074    -2.3691 H       0      f0     0.0260
   1716 C            3.2532    15.1897     1.1718 C       0      f0     0.0269
   1717 C            4.4284    16.2235    -1.3876 C       0      f0     0.0093
   1718 C            4.5239    15.6192     1.1308 C       0      f0     0.0189
   1719 C            4.9048    16.6234    -0.0022 C       0      f0     0.0069
   1720 O            5.1212    13.1676     0.2405 O      46     f46    -0.4929
   1721 H            5.0720    13.0401     2.4241 H       0      f0     0.0622
   1722 H            5.4031    15.4331     1.7694 H       0      f0     0.0218
   1723 C            5.6734    15.8460    -1.8071 C       0      f0     0.0134
   1724 C            6.2316    12.7934    -0.9274 C      46     f46     0.1723
   1725 C            6.0792    12.7635     2.4188 C       0      f0    -0.0700
   1726 C            6.3837    13.1093     1.0973 C      46     f46     0.2148
   1727 C            6.9315    16.5640    -2.4641 C       0      f0    -0.0053
   1728 C            7.3916    13.2670    -0.6817 C      46     f46     0.0200
   1729 C            7.6082    13.4721     0.5914 C      46     f46    -0.0272
   1730 H            8.6608    16.0749     0.3009 H       0      f0     0.0095
   1731 C            8.2638    13.1996    -1.8470 C       0      f0     0.0749
   1732 C            8.3141    14.7048    -1.7591 C       0      f0     0.0089
   1733 H            8.5144    13.6696     1.1621 H       0      f0     0.0434
   1734 C            9.1756    15.3640    -0.5606 C       0      f0     0.0003
   1735 H            9.8141    16.5646    -0.6689 H       0      f0     0.0184
   1736 H            9.7829    14.7504     0.2295 H       0      f0     0.0439
   1737 O           11.8442    14.6920    -1.3705 O       0      f0    -0.4594
   1738 C           12.1120    15.7661    -0.6346 C       0      f0     0.2693
   1739 H           12.9222    15.9497     0.1419 H       0      f0    -0.0251
   1740 H           12.8983    12.0025     1.8728 H       0      f0     0.0245
   1741 C           12.8405    11.8155    -0.6856 C       0      f0    -0.0037
   1742 C           13.4269    12.7439     0.0560 C       0      f0     0.0428
   1743 C           13.9439    13.6056     0.8167 C       0      f0     0.0006
   1744 H           14.5781    14.5134     1.1058 H       0      f0     0.0259
   1745 H           15.8390    15.6989    -0.4748 H       0      f0     0.0235
   1746 C          -16.1312   -13.3844     4.7782 C       0      f0    -0.0355
   1747 C          -15.4204   -15.6968     7.3578 C       0      f0    -0.0172
   1748 H          -15.8651   -15.3938     6.4351 H       0      f0     0.0261
   1749 C          -14.8243   -13.8423     4.3530 C       0      f0    -0.0090
   1750 H          -13.9864   -14.1064     6.4471 H       0      f0     0.0218
   1751 H          -14.2441   -15.9714     4.2807 H       0      f0     0.0731
   1752 C          -13.5370   -14.2902     4.1807 C      47     f47     0.0055
   1753 C          -13.3673   -15.5103     4.2826 C      47     f47    -0.0599
   1754 H          -11.5695   -12.5619     4.2650 H       0      f0     0.0175
   1755 C          -12.2657   -13.6197     4.2761 C      47     f47    -0.0171
   1756 C          -11.8979   -16.0912     3.8345 C      47     f47     0.1527
   1757 C          -11.3914   -14.7424     4.3690 C      47     f47    -0.0144
   1758 C          -10.1050   -13.8720     4.3155 C       0      f0    -0.0178
   1759 H           -9.8834   -13.3029     5.2805 H       0      f0     0.0184
   1760 H           -8.9882   -16.6703     7.5701 H       0      f0     0.0396
   1761 C           -8.8461   -14.5265     3.8216 C      48     f48     0.0107
   1762 H           -7.8643   -16.5147     4.9557 H       0      f0     0.0474
   1763 C           -8.0446   -13.8426     2.8666 C      48     f48    -0.0107
   1764 C           -8.1076   -15.5498     4.3803 C      48     f48    -0.0086
   1765 C           -7.3195   -14.9578     2.2819 C      48     f48    -0.0186
   1766 C           -6.8635   -15.5979     3.5287 C      48     f48    -0.0023
   1767 H           -6.7125   -11.7408     5.3209 H       0      f0     0.0198
   1768 C           -5.9107   -12.2313     5.8504 C       0      f0    -0.0310
   1769 C           -6.0213   -13.3924     6.6280 C       0      f0     0.0006
   1770 C           -4.9945   -16.3721     4.3831 C       0      f0    -0.0263
   1771 H           -4.2429   -12.6177     4.4377 H       0      f0     0.0212
   1772 H           -4.0581   -12.5591     7.5258 H       0      f0     0.0276
   1773 C           -3.3074   -12.4783     3.0155 C       0      f0    -0.0049
   1774 C           -3.3299   -13.2921     4.2289 C       0      f0    -0.0344
   1775 H           -3.2140   -13.4933     5.3514 H       0      f0     0.0218
   1776 C           -2.0198   -14.2039     4.1060 C       0      f0    -0.0004
   1777 C           -2.1134   -15.1452     2.9898 C       0      f0     0.0054
   1778 C           -1.8797   -16.5406     3.1965 C       0      f0    -0.0265
   1779 H           -1.4747   -16.0767     6.9998 H       0      f0     0.0427
   1780 C           -1.2864   -14.3648     5.3042 C       0      f0    -0.0055
   1781 C           -0.5197   -14.9546     6.3576 C       0      f0    -0.0136
   1782 C            0.2370   -16.1633     6.8992 C      61     f61    -0.0087
   1783 H            0.8136   -12.9183     3.7583 H       0      f0     0.0198
   1784 C            1.5694   -15.9176     6.3998 C      61     f61    -0.0002
   1785 H            2.3603   -13.9899     6.9975 H       0      f0     0.0186
   1786 H            3.1178   -12.1218     6.3832 H       0      f0     0.0252
   1787 H            3.2887   -16.7222     3.6384 H       0      f0     0.0236
   1788 C            4.0071   -14.7754     2.5031 C       0      f0    -0.0024
   1789 C            4.0541   -16.3336     3.0961 C       0      f0    -0.0434
   1790 H            4.7451   -12.0512     5.4132 H       0      f0     0.0268
   1791 C            4.9243   -13.5090     2.7444 C       0      f0    -0.0036
   1792 C            6.2211   -13.1113     2.9336 C       0      f0    -0.0380
   1793 H            6.7426   -11.9876     2.9796 H       0      f0     0.0160
   1794 C            6.9855   -14.1541     5.8480 C       0      f0    -0.0083
   1795 C            6.9992   -12.7245     5.5301 C       0      f0    -0.0415
   1796 H            6.7420   -14.0253     2.7556 H       0      f0     0.0235
   1797 H            7.4390   -12.3667     6.5452 H       0      f0     0.0132
   1798 H            7.1694   -12.1006     4.6605 H       0      f0     0.0172
   1799 C            8.0724   -15.0261     5.1450 C       0      f0    -0.0012
   1800 C            8.3952   -16.5939     5.3405 C       0      f0    -0.0110
   1801 C            9.3914   -14.2122     4.7301 C       0      f0     0.0056
   1802 C            9.3858   -13.6426     3.5386 C       0      f0    -0.0059
   1803 H           10.8665   -11.6852     5.5247 H       0      f0     0.0225
   1804 C           10.8378   -14.0088     5.2736 C       0      f0    -0.0139
   1805 H           11.0586   -14.2500     6.2151 H       0      f0     0.0328
   1806 C           11.7041   -13.8300     4.2878 C       0      f0     0.0309
   1807 O           13.0850   -16.4152     4.1172 O       0      f0    -0.4854
   1808 C           12.8717   -14.1164     3.3851 C       0      f0     0.0606
   1809 C           13.7979   -14.3365     2.8508 C       0      f0     0.0291
   1810 H           14.9039   -11.4324     6.0617 H       0      f0     0.0128
   1811 H           15.1562   -14.5495     6.9540 H       0      f0     0.0297
   1812 H           16.3449   -14.5565     4.4176 H       0      f0     0.0355
   1813 C           16.0626   -12.5458     2.6204 C       0      f0    -0.0179
   1814 H           16.3869   -13.1046     5.7624 H       0      f0     0.0192
   1815 H          -16.1741    -8.2350     5.1727 H       0      f0     0.0181
   1816 C          -15.6156   -10.3306     6.3303 C       0      f0    -0.0076
   1817 C          -15.8285   -11.4364     2.4789 C       0      f0     0.0024
   1818 C          -15.6023   -10.4556     3.0901 C       0      f0    -0.0059
   1819 C          -15.4094    -7.8878     4.5125 C       0      f0    -0.0343
   1820 C          -15.2983    -9.0321     3.5132 C       0      f0     0.0289
   1821 C          -14.4332   -10.7443     6.0851 C       0      f0     0.0114
   1822 H          -14.6713    -7.1258     5.0181 H       0      f0     0.0227
   1823 H          -14.2595    -8.5707     7.4352 H       0      f0     0.0293
   1824 C          -13.3346    -7.9403     6.9309 C       0      f0    -0.0465
   1825 C          -13.3092   -11.1685     5.9229 C       0      f0    -0.0494
   1826 H          -12.7704   -10.6906     5.1505 H       0      f0     0.0313
   1827 H          -13.0703    -8.3741     5.8301 H       0      f0     0.0348
   1828 H          -12.9046   -11.2581     6.9171 H       0      f0     0.0338
   1829 O          -12.0561    -8.1348     2.5463 O       0      f0    -0.4822
   1830 H          -11.6240    -9.3935     5.8533 H       0      f0     0.0280
   1831 C          -10.8946    -8.9408     6.5791 C       0      f0    -0.0376
   1832 H          -10.6087    -9.9791     4.3341 H       0      f0     0.0498
   1833 C           -9.7751   -10.1276     7.3336 C       0      f0    -0.0071
   1834 H           -9.8506    -8.8362     6.2208 H       0      f0     0.0302
   1835 C           -9.7430   -10.5948     4.6352 C       0      f0    -0.0367
   1836 C           -8.8974   -10.8228     6.2388 C       0      f0    -0.0216
   1837 H           -9.7906   -11.4480     3.7015 H       0      f0     0.0219
   1838 C           -8.4684   -10.0438     5.0614 C       0      f0     0.0071
   1839 H           -8.6106   -11.7609     6.7167 H       0      f0     0.0194
   1840 C           -7.7348    -7.4288     5.9456 C       0      f0     0.0060
   1841 C           -6.3070    -7.8719     5.9488 C       0      f0    -0.0010
   1842 C           -5.5071    -8.5814     4.9521 C       0      f0    -0.0188
   1843 H           -4.8692   -10.3706     6.0087 H       0      f0     0.0237
   1844 C           -5.1844   -11.1940     6.6812 C       0      f0     0.0069
   1845 H           -5.9337    -9.3001     4.1193 H       0      f0     0.0203
   1846 C           -4.5063    -7.6350     4.4757 C       0      f0    -0.0007
   1847 H           -4.6053    -7.2180     6.2303 H       0      f0     0.0249
   1848 C           -4.4567   -11.4947     2.4717 C       0      f0    -0.0065
   1849 C           -3.8872   -11.6602     6.8342 C       0      f0    -0.0213
   1850 C           -3.0966    -7.3716     4.2137 C       0      f0     0.0088
   1851 C           -2.7601   -11.0227     6.9457 C       0      f0     0.0106
   1852 C           -2.2298    -7.2898     3.0490 C       0      f0    -0.0195
   1853 H           -1.0945   -10.7622     2.6738 H       0      f0     0.0366
   1854 C           -0.1766   -11.0463     6.5477 C       0      f0    -0.0724
   1855 C            0.0252   -11.5086     5.4949 C       0      f0     0.0488
   1856 C            0.2739   -11.9865     4.1307 C       0      f0    -0.0211
   1857 C            0.5602    -9.7523     6.5802 C       0      f0     0.2930
   1858 O            0.6666    -8.8987     5.5307 O       0      f0    -0.4392
   1859 C            0.7739   -11.0412     2.9331 C       0      f0     0.0255
   1860 C            2.2480    -7.5090     2.9805 C      19     f19     0.0159
   1861 C            2.0673   -11.0798     2.4537 C       0      f0    -0.0002
   1862 C            3.0495    -8.5805     2.8913 C      19     f19    -0.0036
   1863 H            3.3314   -10.7031     5.2685 H       0      f0     0.0427
   1864 H            3.7473    -8.5185     3.6244 H       0      f0     0.0280
   1865 C            3.8645   -11.5896     5.7950 C       0      f0    -0.0589
   1866 C            4.2805   -10.3027     6.7624 C       0      f0     0.0117
   1867 H            4.8430    -9.2012     5.0834 H       0      f0     0.0242
   1868 C            5.0898    -9.3056     6.1247 C       0      f0    -0.0201
   1869 H            6.1825    -6.4459     5.5614 H       0      f0     0.0192
   1870 C            6.3281    -8.6116     6.8355 C       0      f0    -0.0012
   1871 C            6.4564    -7.5072     5.5705 C       0      f0    -0.0222
   1872 H            7.4277    -9.6315     3.6112 H       0      f0     0.0118
   1873 C            7.5031    -7.3446     4.5594 C      20     f20     0.0043
   1874 C            7.9736    -8.6321     4.0706 C      20     f20    -0.0193
   1875 H            8.3543   -11.5176     3.4109 H       0      f0     0.0126
   1876 H            9.5487   -10.5699     7.8906 H       0      f0     0.0167
   1877 C            9.0273    -8.4719     3.0967 C      20     f20    -0.0091
   1878 C           10.2347    -7.4965     3.4408 C       0      f0    -0.0037
   1879 H           10.3991    -8.6674     6.9453 H       0      f0     0.0196
   1880 C           10.8993   -11.6675     6.6873 C       0      f0    -0.0322
   1881 H           10.6250    -8.1387     2.3913 H       0      f0     0.0369
   1882 C           11.6961   -10.5439     6.5727 C       0      f0    -0.0047
   1883 C           12.2316    -9.4316     7.0961 C       0      f0    -0.0085
   1884 H           11.6237    -7.7071     5.6376 H       0      f0     0.0198
   1885 C           13.3266    -7.4654     2.5183 C       0      f0    -0.0163
   1886 C           13.3802    -8.5040     2.8186 C       0      f0     0.0734
   1887 H           13.8364    -9.9939     4.5863 H       0      f0     0.0276
   1888 H           14.1872    -8.5717     3.5217 H       0      f0     0.0043
   1889 C           14.7100   -10.3650     3.9594 C       0      f0    -0.0717
   1890 H           15.0821   -11.2854     4.4713 H       0      f0     0.0233
   1891 C           14.8464    -8.8233     7.0569 C       0      f0    -0.0198
   1892 H           15.3326    -9.4354     4.3252 H       0      f0     0.0207
   1893 C           15.7330   -10.0979     6.5153 C       0      f0    -0.0143
   1894 H          -15.7236    -6.1469     5.5819 H       0      f0     0.0137
   1895 C          -16.1713    -5.5141     6.4224 C       8      f8    -0.0241
   1896 C          -16.2907    -5.9685     2.7777 C       0      f0    -0.0103
   1897 C          -15.5847    -6.8920     3.3886 C       0      f0     0.0035
   1898 C          -15.2005    -4.6577     7.0490 C       8      f8    -0.0063
   1899 C          -12.5987    -2.9016     6.5690 C       0      f0    -0.0016
   1900 C          -12.1441    -3.8393     5.9362 C       0      f0    -0.0046
   1901 H          -11.4173    -5.9867     5.6207 H       0      f0     0.0240
   1902 C          -11.3922    -4.8343     5.2750 C       0      f0    -0.0319
   1903 H          -10.9122    -4.4880     4.1213 H       0      f0     0.0199
   1904 H          -10.6311    -2.5534     3.5078 H       0      f0     0.0277
   1905 C           -9.6524    -2.8088     2.9724 C       0      f0    -0.0243
   1906 H           -9.5109    -7.0473     7.0176 H       0      f0     0.0212
   1907 C           -8.9775    -7.2797     6.1448 C       0      f0    -0.0256
   1908 C           -9.0439    -5.8909     5.4742 C       0      f0     0.0049
   1909 H           -8.4227    -3.7061     5.4784 H       0      f0     0.0227
   1910 C           -8.2587    -4.7087     5.4849 C       0      f0    -0.0289
   1911 H           -7.6435    -3.3167     7.1326 H       0      f0     0.0196
   1912 C           -6.7829    -4.5376     5.7972 C       0      f0     0.0043
   1913 C           -6.6727    -3.1900     6.5457 C       0      f0    -0.0403
   1914 H           -6.0917    -7.3075     3.0697 H       0      f0     0.0169
   1915 C           -5.5639    -5.2590     5.7005 C       0      f0    -0.0212
   1916 H           -5.7062    -2.8848     7.2179 H       0      f0     0.0150
   1917 C           -5.5908    -6.6782     6.6618 C       0      f0    -0.0097
   1918 C           -5.1517    -6.5775     3.5246 C       0      f0    -0.0148
   1919 H           -4.7052    -4.6834     6.1983 H       0      f0     0.0182
   1920 C           -4.6435    -5.3150     3.1937 C       0      f0    -0.0112
   1921 H           -5.4011    -2.8937     3.6298 H       0      f0    -0.0053
   1922 H           -4.2369    -4.5678     4.1587 H       0      f0     0.0266
   1923 C           -1.8353    -6.5209     6.7163 C       0      f0    -0.0073
   1924 C           -2.3558    -6.9846     5.4417 C       0      f0    -0.0015
   1925 H           -0.8154    -6.2909     7.0207 H       0      f0     0.0386
   1926 H           -1.1629    -7.1230     3.0790 H       0      f0     0.0311
   1927 H           -1.0817    -2.9593     2.9732 H       0      f0     0.0564
   1928 H           -1.5091    -6.6129     4.9486 H       0      f0     0.0393
   1929 C           -0.1832    -3.3481     2.5506 C       0      f0    -0.0303
   1930 C            1.0900    -3.3768     6.1967 C       0      f0     0.0042
   1931 H            2.0019    -2.8687     4.3157 H       0      f0     0.0195
   1932 H            2.1442    -6.6230     3.5766 H       0      f0     0.0327
   1933 H            3.2046    -4.8952     2.2816 H       0      f0     0.0199
   1934 C            3.9419    -5.3053     3.0664 C       0      f0    -0.0169
   1935 C            3.6551    -5.6993     5.7827 C       0      f0     0.0093
   1936 C            4.1670    -5.7174     4.5006 C       0      f0    -0.0027
   1937 C            4.5192    -5.4182     7.0766 C       0      f0    -0.0449
   1938 C            5.0085    -5.7218     2.2155 C       0      f0     0.0023
   1939 H            8.1190    -4.2086     3.3115 H       0      f0     0.0213
   1940 C            7.9955    -5.3353     3.3757 C      20     f20    -0.0135
   1941 C            8.2094    -6.0392     4.7032 C      20     f20    -0.0208
   1942 H            7.8180    -5.2488     5.5993 H       0      f0     0.0098
   1943 H            8.4086    -4.8566     7.0747 H       0      f0     0.0140
   1944 C           10.3528    -2.1597     7.2485 C       0      f0    -0.0173
   1945 H           10.4072    -6.1785     5.0161 H       0      f0     0.0202
   1946 C           10.9691    -6.7852     4.3252 C       0      f0    -0.0199
   1947 C           12.3485    -7.0409     4.8610 C       0      f0    -0.0136
   1948 H           12.0899    -5.4066     3.5832 H       0      f0     0.0255
   1949 H           12.2861    -3.8204     3.1916 H       0      f0     0.0157
   1950 C           12.6162    -6.1906     7.2528 C       8      f8    -0.0091
   1951 C           12.8996    -4.7185     3.2887 C       0      f0    -0.0377
   1952 C           13.0870    -6.4614     5.9075 C       8      f8    -0.0028
   1953 C           14.1030    -4.8324     4.1057 C       0      f0     0.0024
   1954 C           14.3509    -5.6128     5.5397 C       8      f8    -0.0208
   1955 H           15.2071    -6.3214     5.3856 H       0      f0     0.0179
   1956 C           15.0442    -3.8820     3.3297 C       0      f0    -0.0075
   1957 C           15.3194    -5.0895     6.6377 C       8      f8    -0.0034
   1958 C          -15.7496    -0.3816     3.8352 C     100    f100     0.0551
   1959 C          -15.1588    -0.4367     6.2979 C       0      f0    -0.0474
   1960 C          -14.8677    -0.2170     4.9326 C     100    f100     0.2277
   1961 O          -14.1647     0.5697     3.9996 O     100    f100    -0.4156
   1962 H           -9.1020    -0.7390     6.5115 H       0      f0     0.0438
   1963 C           -8.4741    -2.3146     3.5820 C       0      f0    -0.0005
   1964 C           -8.3555    -0.2524     7.3212 C       0      f0    -0.0821
   1965 C           -8.0708     0.7211     6.2748 C       0      f0     0.0541
   1966 C           -7.6291    -2.1286     4.5299 C       0      f0    -0.0108
   1967 C           -7.5289     1.8627     6.6484 C       0      f0     0.0153
   1968 C           -6.7356    -1.9244     5.4999 C       0      f0     0.0055
   1969 H           -6.2935     0.8530     2.1228 H       0      f0     0.0902
   1970 C           -5.6236    -1.2423     4.5616 C       0      f0    -0.0401
   1971 C           -4.8230    -0.2075     5.0485 C       0      f0     0.0370
   1972 C           -4.8384    -1.9596     3.4084 C      96     f96     0.1506
   1973 C           -3.9707     0.5409     5.4325 C       0      f0    -0.0134
   1974 H           -2.0700    -0.0800     3.6600 H       0      f0     0.0438
   1975 H           -3.2349     0.9529     6.3472 H       0      f0     0.0183
   1976 C           -2.3568     0.5693     2.6840 C       0      f0     0.0460
   1977 C            1.1675     1.3558     2.3008 C       0      f0    -0.0146
   1978 C            1.7935    -2.2731     5.3979 C       0      f0    -0.0218
   1979 C            1.8274    -0.7746     5.9351 C       0      f0     0.0050
   1980 C            2.0405     0.3352     2.4760 C       0      f0    -0.0180
   1981 H            2.8651    -0.7239     5.5572 H       0      f0     0.0325
   1982 C            3.5472     0.8221     2.6312 C       0      f0    -0.0014
   1983 H            4.0725     1.1978     3.3915 H       0      f0     0.0209
   1984 C            6.4401     1.9345     6.4506 C       0      f0     0.0261
   1985 C            7.4981     1.3320     5.6088 C      33     f33     0.0038
   1986 H            7.8999    -0.0925     7.3724 H       0      f0     0.0333
   1987 C            7.9712     1.6651     4.0162 C      33     f33    -0.0022
   1988 C            8.1340     0.1274     6.2092 C      33     f33    -0.0109
   1989 C            9.0126     0.8268     3.5645 C      33     f33     0.0057
   1990 C            9.3821    -0.3182     5.5444 C      33     f33     0.0091
   1991 C            9.6914    -0.2809     4.0201 C      33     f33    -0.0238
   1992 C           10.4457    -1.3899     6.3336 C       0      f0     0.0085
   1993 H           10.4590    -0.8260     3.5557 H       0      f0     0.0169
   1994 C           11.4892    -1.3189     5.3067 C       0      f0     0.0028
   1995 C           12.3925    -1.2245     4.4606 C       0      f0    -0.0195
   1996 H           12.3497    -0.2627     3.8560 H       0      f0     0.0192
   1997 H           13.2223    -2.9338     5.4222 H       0      f0     0.0158
   1998 C           13.6669    -2.0165     4.8255 C       0      f0    -0.0203
   1999 C           14.8569    -1.6878     4.4141 C       0      f0     0.0033
   2000 C           15.1820    -1.1409     6.8955 C     101    f101     0.1446
   2001 C           15.8307    -1.0780     3.9268 C       0      f0    -0.0259
   2002 C           16.3702    -0.7840     6.4576 C       0      f0    -0.0056
   2003 C          -16.0017     2.9466     7.2622 C       0      f0     0.0201
   2004 H          -13.9597     4.6067     2.3819 H       0      f0     0.0685
   2005 O          -11.4190     4.6914     2.6062 O       0      f0    -0.4501
   2006 C          -11.4193     4.9093     7.1338 C       0      f0     0.0211
   2007 H          -10.6237     5.1722     6.2374 H       0      f0     0.0456
   2008 C           -9.0466     6.5642     7.1080 C       0      f0     0.0068
   2009 C           -8.7361     6.6610     5.6351 C       0      f0    -0.0116
   2010 H           -8.5951     5.5569     4.8787 H       0      f0     0.0416
   2011 H           -8.6938     6.3454     3.1082 H       0      f0     0.0446
   2012 O           -8.3825     2.5047     3.5220 O      60     f60    -0.4489
   2013 C           -7.9690     3.8900     3.1010 C      60     f60     0.2385
   2014 C           -7.9947     4.1419     7.1836 C       0      f0     0.0167
   2015 C           -7.4215     3.0651     6.8607 C       0      f0     0.0356
   2016 C           -7.5511     6.6225     3.3053 C       0      f0    -0.0144
   2017 C           -7.2429     5.0532     3.7723 C       0      f0    -0.0587
   2018 C           -6.3727     4.7585     4.8617 C       0      f0     0.0255
   2019 C           -5.1398     4.2787     5.4854 C       0      f0    -0.0370
   2020 H           -4.7479     5.0677     6.0537 H       0      f0     0.0633
   2021 H           -4.4891     3.4530     5.0232 H       0      f0     0.0277
   2022 H           -2.3169     3.1223     6.3863 H       0      f0     0.0132
   2023 H           -2.5830     5.6541     2.4114 H       0      f0     0.0178
   2024 C           -2.0334     3.8283     7.1419 C       0      f0     0.0047
   2025 C           -1.7137     5.3374     7.0838 C       0      f0     0.0258
   2026 C           -1.7868     6.6316     6.1011 C       0      f0    -0.0292
   2027 H           -1.1328     6.4836     5.3103 H       0      f0     0.0144
   2028 H            0.5446     4.7613     3.0782 H       0      f0     0.0216
   2029 H            1.5623     3.5994     4.2279 H       0      f0     0.0225
   2030 C            1.0914     3.7869     3.3176 C       0      f0    -0.0621
   2031 H            0.6637     6.0848     5.4199 H       0      f0     0.0179
   2032 C            1.4120     5.8217     6.0949 C      10     f10    -0.0239
   2033 H            2.0264     3.7216     2.7292 H       0      f0     0.0212
   2034 C            2.9522     5.9897     5.8828 C      10     f10     0.0204
   2035 C            2.9470     7.0006     3.4675 C       0      f0     0.0359
   2036 C            3.2340     6.0035     4.3190 C      10     f10     0.0013
   2037 C            3.7276     4.7130     6.3556 C      10     f10    -0.0002
   2038 H            4.5112     5.6740     2.8061 H       0      f0     0.0204
   2039 C            4.3760     5.2759     3.7266 C      10     f10    -0.0224
   2040 C            4.9254     4.2238     5.9703 C      10     f10    -0.0073
   2041 C            5.1395     4.2694     4.4463 C      10     f10     0.0036
   2042 C            5.5072     3.0294     6.6663 C       0      f0     0.0190
   2043 C            6.5392     4.0731     3.8197 C       0      f0    -0.0066
   2044 H            6.4098     5.9829     4.1064 H       0      f0     0.0248
   2045 C            7.2466     2.7553     3.3704 C       0      f0    -0.0083
   2046 C            7.3525     5.1975     4.1437 C       0      f0    -0.0183
   2047 H            8.0624     5.3761     6.7015 H       0      f0     0.0232
   2048 C            7.7990     6.4104     7.1099 C       0      f0    -0.0118
   2049 C            8.7905     5.5117     3.8118 C       0      f0    -0.0027
   2050 C            9.0482     6.3845     4.8432 C       0      f0    -0.0054
   2051 C            8.9592     6.8406     6.0479 C       0      f0    -0.0040
   2052 C           10.3902     5.9975     3.1549 C       0      f0    -0.0057
   2053 H           11.3782     3.2851     5.0993 H       0      f0     0.0288
   2054 C           11.6885     5.8841     3.0192 C       0      f0    -0.0057
   2055 C           11.5008     4.8349     6.8282 C       0      f0     0.0147
   2056 C           11.9134     4.2441     5.7401 C       0      f0    -0.0202
   2057 C           13.0130     5.7281     2.4310 C       0      f0    -0.0190
   2058 C           13.3170     3.9984     6.2493 C       0      f0     0.0072
   2059 H           13.8964     5.1006     6.4077 H       0      f0     0.0213
   2060 H           13.9311     5.7117     3.2079 H       0      f0     0.0194
   2061 H           16.4205     6.5379     2.8710 H       0      f0     0.0295
   2062 C          -16.1703    11.2045     4.2844 C     102    f102    -0.0786
   2063 H          -16.0507     9.5891     7.2661 H       0      f0     0.0578
   2064 H          -15.4251    11.6941     4.8036 H       0      f0     0.0362
   2065 C          -15.1502    10.2753     7.3587 C       0      f0    -0.0176
   2066 H          -12.8430     9.2593     3.3165 H       0      f0     0.0253
   2067 C          -13.7806     9.4499     6.9582 C       0      f0     0.0129
   2068 C          -13.1801     9.4748     5.7825 C       0      f0     0.0005
   2069 C          -12.6456     9.2533     4.5615 C       0      f0    -0.0059
   2070 C          -11.4830    11.6027     5.9318 C       0      f0    -0.0015
   2071 C          -10.8923    10.3228     5.6434 C      21     f21    -0.0052
   2072 C          -10.6264    10.3368     4.2408 C      21     f21     0.0001
   2073 H          -10.0299    12.1409     2.6446 H       0      f0     0.0313
   2074 C           -9.8179    11.4426     3.4670 C      21     f21    -0.0191
   2075 C           -9.5990    10.5345     6.2892 C      21     f21    -0.0251
   2076 H           -9.4692    10.7331     7.3033 H       0      f0     0.0145
   2077 C           -8.7056    11.1977     4.3321 C      21     f21     0.0094
   2078 C           -8.2178     9.7228     5.7708 C      21     f21    -0.0072
   2079 C           -7.9923     8.6414     4.9408 C       0      f0    -0.0055
   2080 C           -8.0114     7.2609     4.6160 C       0      f0     0.0001
   2081 C           -7.5455    10.6167     4.7150 C      21     f21    -0.0258
   2082 C           -6.6704     7.7891     2.5453 C       0      f0    -0.0025
   2083 H           -6.4398    10.9216     4.7233 H       0      f0     0.0173
   2084 H           -5.0981    11.0437     2.6259 H       0      f0     0.0190
   2085 C           -5.3165     7.9065     2.5941 C       0      f0    -0.0142
   2086 C           -3.9296     7.9363     2.4842 C       0      f0    -0.0150
   2087 H           -4.2397     8.7160     5.1832 H       0      f0     0.0165
   2088 C           -3.3604     9.0974     5.8914 C       0      f0    -0.0263
   2089 C           -3.0055     9.9132     6.6885 C       0      f0     0.0169
   2090 C           -2.3508     8.2546     2.3206 C      31     f31     0.0187
   2091 C           -2.3785     7.7530     6.4345 C       0      f0     0.0257
   2092 H           -2.2546     9.6407     3.3851 H       0      f0     0.0148
   2093 C           -1.4413     9.1637     2.6784 C      31     f31    -0.0237
   2094 H           -0.8830    11.2551     4.0163 H       0      f0     0.0172
   2095 C           -0.8736    10.5603     7.2155 C       0      f0    -0.0060
   2096 C           -0.4975    11.9568     4.8175 C       0      f0    -0.0090
   2097 C           -0.4190    11.5308     6.0806 C       0      f0    -0.0105
   2098 C            2.1155     7.5919     2.7314 C       0      f0    -0.0172
   2099 H            2.3598    10.6976     3.1017 H       0      f0     0.0415
   2100 H            3.9285    10.2139     6.6371 H       0      f0     0.0926
   2101 O            4.3111     9.5793     4.7839 O     103    f103    -0.4406
   2102 C            4.8996    10.8790     4.1892 C     103    f103     0.1403
   2103 H            4.9419    11.7284     4.7830 H       0      f0    -0.0018
   2104 C            5.8345     9.8576     4.2459 C     103    f103     0.1077
   2105 C            6.7457     9.1151     5.3652 C     104    f104     0.0146
   2106 C            7.2186     9.5396     6.7858 C     104    f104     0.0012
   2107 C            7.6635    11.6717     7.1153 C       0      f0    -0.0395
   2108 C            8.1549     9.3841     5.3993 C     104    f104    -0.0006
   2109 H            8.7855    11.9389     2.8123 H       0      f0     0.0253
   2110 C            9.1780     9.1366     4.4219 C       0      f0     0.0075
   2111 C            9.1492     9.7255     2.9299 C       0      f0    -0.0090
   2112 C            9.5513    11.0935     2.6150 C       0      f0    -0.0014
   2113 C           10.1195     7.9224     5.8464 C       0      f0     0.0173
   2114 C           10.3875     8.5986     4.4707 C       0      f0    -0.0257
   2115 H           10.9355     7.9215     3.7520 H       0      f0     0.0202
   2116 C           11.3224     7.4448     6.4778 C       0      f0    -0.0261
   2117 H           11.8239     6.9623     5.5301 H       0      f0     0.0180
   2118 H           13.1681     9.7668     5.9753 H       0      f0     0.0185
   2119 H          -16.3803    10.2306     3.7965 H       0      f0     0.0310
   2120 H          -15.4387    13.7290     6.8559 H       0      f0     0.0381
   2121 O          -15.3002    15.5302     3.3378 O      99     f99    -0.3995
   2122 C          -14.6425    13.0535     6.8451 C       0      f0    -0.0360
   2123 H          -13.8265    13.4491     4.7239 H       0      f0     0.0570
   2124 C          -13.7124    13.2345     5.6868 C       0      f0    -0.0013
   2125 H          -12.7172    16.1901     2.1910 H       0      f0     0.0666
   2126 C          -12.5761    12.6031     6.3840 C       0      f0    -0.0052
   2127 O          -11.2826    15.9977     4.6225 O       0      f0    -0.4910
   2128 H          -11.9023    16.3333     5.4048 H       0      f0     0.2269
   2129 H           -8.3829    14.6013     4.0263 H       0      f0     0.0541
   2130 C           -7.8831    14.3242     2.9500 C      45     f45    -0.0089
   2131 C           -7.1598    12.9478     2.8499 C      45     f45     0.0038
   2132 H           -6.2755    15.6161     4.3767 H       0      f0     0.0695
   2133 C           -6.2614    16.7282     4.1625 C       0      f0    -0.0019
   2134 O           -5.6708    15.0005     6.4957 O     105    f105    -0.3937
   2135 C           -5.5797    13.5855     6.7894 C     105    f105     0.1839
   2136 C           -3.7620    16.3067     4.9974 C     106    f106     0.2213
   2137 O           -3.1987    15.2582     5.9744 O     106    f106    -0.3515
   2138 C           -2.5107    16.4190     4.3744 C     106    f106     0.0221
   2139 H           -1.0216    16.6155     2.5440 H       0      f0     0.0186
   2140 H           -1.1647    13.8631     6.8943 H       0      f0     0.0513
   2141 C           -0.3494    14.7485     6.9748 C      22     f22     0.0063
   2142 C           -0.2509    13.3600     4.3854 C       0      f0    -0.0120
   2143 H           -0.2270    14.2045     4.9078 H       0      f0     0.0344
   2144 C            0.1827    13.8044     3.1070 C       0      f0    -0.0069
   2145 C            0.3251    16.0434     6.3690 C      61     f61     0.0129
   2146 H           -0.2863    12.2408     7.0866 H       0      f0     0.0144
   2147 C            1.7016    16.2284     6.0690 C      61     f61    -0.0109
   2148 C            2.6312    15.5404     6.6712 C      22     f22    -0.0033
   2149 H            5.1098   -16.6386     2.9719 H       0      f0     0.0166
   2150 H            6.2816    16.5747     4.8281 H       0      f0     0.0157
   2151 C            6.8849    14.2262     4.5673 C       0      f0    -0.0176
   2152 C            6.8092    12.9941     3.7089 C       0      f0    -0.0106
   2153 C            7.3034    16.3660     5.0251 C       0      f0    -0.0237
   2154 H            7.3637    12.7558     6.8754 H       0      f0     0.0128
   2155 C            7.7678    14.9926     4.8573 C       0      f0     0.0009
   2156 C            9.2101    14.5484     5.3656 C       0      f0    -0.0170
   2157 H            9.3426    16.3880     5.0521 H       0      f0     0.0323
   2158 C            9.4208    14.5430     6.7554 C       0      f0     0.0070
   2159 C           10.4770    14.2921     4.7437 C       0      f0     0.0054
   2160 C           10.7146    12.0862     2.7018 C       0      f0     0.0012
   2161 C           11.0515    13.4270     3.6022 C       0      f0    -0.0162
   2162 H           12.1464    12.3369     6.5775 H       0      f0     0.0234
   2163 C           12.1979    13.9098     3.6191 C       0      f0     0.0152
   2164 C           13.5629    14.4868     3.9011 C       0      f0    -0.0627
   2165 C           13.5962    16.1176     3.5543 C       0      f0     0.3367
   2166 C           14.5818    13.7676     3.9757 C       0      f0     0.0433
   2167 C           14.7651    16.2908     2.7200 C       0      f0    -0.1069
   2168 C           15.4171    12.7183     3.8670 C     102    f102    -0.0423
   2169 C           16.1024    15.4727     2.5621 C      99     f99     0.1532
   2170 C           16.2975    12.0659     3.1340 C     102    f102     0.1777
   2171 C          -16.2219   -13.6200     9.5249 C       0      f0    -0.0050
   2172 C          -16.2470   -16.2245     8.2776 C       0      f0     0.0063
   2173 H          -16.1030   -16.1149    12.0154 H       0      f0     0.0167
   2174 C          -15.3895   -13.1523    10.0408 C       0      f0     0.0331
   2175 C          -14.4974   -14.7667     8.2386 C       0      f0    -0.0060
   2176 H          -14.4561   -13.0243    10.4721 H       0      f0     0.0923
   2177 C          -13.8391   -13.8036     7.4196 C       0      f0    -0.0217
   2178 C          -12.8698   -16.4144    11.7956 C       0      f0    -0.0005
   2179 H          -13.0317   -16.3986     8.2101 H       0      f0     0.0247
   2180 C          -12.5387   -13.3688     7.9549 C       0      f0    -0.0053
   2181 O          -12.2904   -12.9748    11.7182 O       0      f0    -0.4502
   2182 H          -12.8465   -13.8961     8.9638 H       0      f0     0.0397
   2183 C          -11.6106   -14.4707    11.7362 C       0      f0     0.1950
   2184 C          -11.6234   -15.7756    11.9846 C       0      f0    -0.0619
   2185 C          -11.4494   -12.5571     7.4293 C       0      f0    -0.0012
   2186 C          -10.2158   -13.2576     7.1405 C       0      f0    -0.0127
   2187 C           -9.1011   -13.5859     8.0755 C       0      f0    -0.0055
   2188 C           -9.0470   -16.3529     9.6640 C      62     f62    -0.0206
   2189 C           -8.7005   -15.8914     8.3468 C      62     f62    -0.0105
   2190 H           -9.5757   -14.4013    10.5442 H       0      f0     0.0252
   2191 C           -8.5168   -14.9770    10.2567 C      62     f62    -0.0339
   2192 C           -8.2742   -14.5786     8.8027 C      62     f62     0.0055
   2193 H           -7.8780   -15.2112    11.0166 H       0      f0     0.0200
   2194 C           -6.8691   -13.0767    10.1156 C       0      f0    -0.0216
   2195 H           -6.5135   -13.5196     9.1831 H       0      f0     0.0286
   2196 H           -5.7003   -15.1146    12.4259 H       0      f0     0.0099
   2197 H           -6.0620   -16.5784     8.3273 H       0      f0     0.0579
   2198 H           -6.4497   -12.6346    11.1034 H       0      f0     0.0357
   2199 C           -5.4717   -14.2521     7.3093 C       0      f0     0.0009
   2200 C           -5.2432   -16.4427     9.0177 C       0      f0    -0.0153
   2201 C           -4.7072   -15.1918     8.4484 C       0      f0     0.0110
   2202 H           -3.8898   -15.8602    11.9779 H       0      f0     0.0132
   2203 C           -3.2550   -14.7457     8.4303 C       0      f0     0.0031
   2204 C           -2.9094   -15.6137    12.1271 C       0      f0    -0.0167
   2205 H           -2.5380   -13.2457    12.2110 H       0      f0     0.0254
   2206 C           -2.1718   -14.1062     9.2633 C       0      f0    -0.0104
   2207 H           -2.4725   -11.5370     9.0089 H       0      f0     0.0339
   2208 C           -1.4295   -13.4454    10.0204 C      49     f49    -0.0020
   2209 C           -0.4305   -12.2275     9.8425 C      49     f49     0.0049
   2210 C           -0.3221   -14.5614    10.4098 C      49     f49    -0.0144
   2211 H           -0.7129   -15.6774    10.4839 H       0      f0     0.0204
   2212 C            0.7933   -12.5208    10.1784 C      49     f49    -0.0189
   2213 C            0.7948   -14.1387    10.4514 C      49     f49    -0.0124
   2214 H            1.6142   -14.7795    11.1427 H       0      f0     0.0208
   2215 H            1.4049   -15.3001     8.5282 H       0      f0     0.0204
   2216 C            2.0550   -14.9166     7.5162 C       0      f0    -0.0373
   2217 H            3.2583   -14.7086    12.2675 H       0      f0     0.0326
   2218 H            3.9824   -13.7761     9.9013 H       0      f0     0.0261
   2219 C            4.5062   -12.8204     9.6657 C       0      f0    -0.0567
   2220 H            4.7381   -12.4368    10.7659 H       0      f0     0.0260
   2221 H            5.1890   -12.7592     8.7772 H       0      f0     0.0198
   2222 H            5.4481   -15.1052     8.8857 H       0      f0     0.0291
   2223 C            6.4476   -15.5726     8.6021 C     107    f107     0.0800
   2224 O            6.6576   -16.5130     9.9306 O     107    f107    -0.4429
   2225 H            7.4103   -15.0043     8.4828 H       0      f0     0.0233
   2226 H            7.8970   -13.2808    10.8748 H       0      f0     0.0249
   2227 C            8.7286   -13.6467    11.6281 C       0      f0     0.0121
   2228 C           10.1047    16.7400     8.0865 C       0      f0     0.0179
   2229 H           10.0513   -15.5743     9.8876 H       0      f0     0.0322
   2230 C           10.3293   -15.7449     8.8649 C       0      f0    -0.0345
   2231 H           10.9458   -13.4614    11.0359 H       0      f0     0.0455
   2232 C           11.3193   -12.4469     9.4268 C       0      f0    -0.0055
   2233 H           11.5193   -15.9374     8.6735 H       0      f0     0.0222
   2234 C           11.7882   -13.2901    10.5542 C       0      f0    -0.0211
   2235 H           12.5718   -14.3063    10.7070 H       0      f0     0.0069
   2236 C           12.1143   -16.6121    11.4901 C      23     f23    -0.0189
   2237 H           12.0627   -15.6226    12.1553 H       0      f0     0.0133
   2238 H           12.1463   -12.0569     8.9053 H       0      f0     0.0230
   2239 H           13.2240   -12.4578    11.6897 H       0      f0     0.0341
   2240 H           14.3023   -14.0930     9.8560 H       0      f0     0.0141
   2241 C           14.5224   -12.2845     7.4409 C     108    f108    -0.0137
   2242 C           15.2237   -13.6476     9.2994 C       0      f0    -0.0107
   2243 C           15.0243   -16.5168    11.8130 C      11     f11    -0.0256
   2244 C           14.8860   -13.7505     7.6975 C       0      f0    -0.0162
   2245 C           15.9871   -16.5601     9.4600 C      11     f11     0.0001
   2246 C           16.2409   -16.5965    11.0120 C      11     f11    -0.0044
   2247 C          -15.9390    -8.7545    10.0174 C      63     f63    -0.0941
   2248 C          -15.7169    -7.3015    10.1486 C      63     f63     0.1941
   2249 C          -14.7585    -9.2996    10.1701 C      24     f24     0.1992
   2250 O          -14.7455   -10.7429    10.6834 O       7      f7    -0.4657
   2251 H          -13.2443    -6.8411     6.9041 H       0      f0     0.0232
   2252 C          -13.9510    -8.1838    10.4215 C      24     f24     0.1193
   2253 C          -13.4196   -10.8467    11.6328 C       7      f7     0.1910
   2254 C          -12.9330    -8.3214    11.5062 C       7      f7     0.0280
   2255 C          -12.3223   -11.3221    11.9869 C       0      f0     0.1206
   2256 C          -11.8827    -8.3077     7.3513 C       0      f0     0.0037
   2257 C          -11.8663    -7.6150     8.7091 C      12     f12     0.0021
   2258 C          -11.2394    -8.4754     9.9410 C      12     f12    -0.0029
   2259 H          -10.0937    -8.8848    11.8043 H       0      f0     0.0318
   2260 C          -10.9475    -7.9003    11.1777 C      12     f12    -0.0174
   2261 C           -9.0355    -9.1051     8.0459 C       0      f0     0.0062
   2262 C           -7.9889    -9.0634     8.7121 C       0      f0    -0.0457
   2263 C           -7.8310   -12.0474    10.0484 C       0      f0    -0.0152
   2264 H           -7.3996    -9.8385    11.8345 H       0      f0     0.0383
   2265 C           -7.1177   -10.5768    10.6256 C     109    f109     0.1178
   2266 C           -7.1634    -9.7487     9.3851 C     109    f109     0.1232
   2267 C           -5.5126    -8.1511    12.3112 C       0      f0     0.1180
   2268 O           -5.6181   -10.0803    10.1814 O     109    f109    -0.4545
   2269 C           -5.4432    -8.8243    11.2309 C       0      f0     0.1505
   2270 H           -5.4169    -7.6146     8.1909 H       0      f0     0.0435
   2271 C           -2.0606    -7.2772     9.6048 C       0      f0    -0.0342
   2272 H           -2.3939    -8.3633     9.3445 H       0      f0     0.0310
   2273 C           -1.3846   -11.0926     9.0361 C       0      f0    -0.0409
   2274 C           -1.4028   -11.0921     7.4721 C       0      f0     0.0133
   2275 H           -1.5094   -10.2204     9.5863 H       0      f0     0.0291
   2276 C           -0.3601    -9.0018    12.2206 C       0      f0    -0.0034
   2277 C            0.8728    -9.1678     7.7977 C       0      f0    -0.0448
   2278 C            1.1178    -8.6767     8.7383 C       0      f0     0.0278
   2279 H            1.3668   -11.6976    10.6557 H       0      f0     0.0267
   2280 C            1.9770    -7.4313     9.2552 C       0      f0     0.0008
   2281 C            3.1269    -7.8163    10.2064 C       0      f0    -0.0178
   2282 H            3.4195    -6.9329    10.6846 H       0      f0     0.0256
   2283 C            3.7300   -10.4450    10.0276 C       0      f0    -0.0118
   2284 C            3.2827    -9.4441    10.7882 C       0      f0    -0.0149
   2285 H            3.4322    -9.8469    11.8624 H       0      f0     0.0315
   2286 C            3.8042   -11.6720     9.0349 C       0      f0    -0.0015
   2287 C            4.4225   -10.7154     8.0399 C       0      f0    -0.0258
   2288 H            5.0748   -10.0863     8.8327 H       0      f0     0.0187
   2289 C            7.1450    -8.6761     7.8956 C       0      f0    -0.0121
   2290 H            7.4911    -9.2187    10.2661 H       0      f0     0.0588
   2291 H            8.0092   -12.1656     9.8306 H       0      f0     0.0222
   2292 C            7.8742    -9.2181     9.1196 C       0      f0     0.0113
   2293 C            8.6604   -11.4265     9.1934 C       0      f0    -0.0227
   2294 O            8.8780    -7.2029    11.1764 O       0      f0    -0.4300
   2295 C            8.6688   -10.0096     8.5893 C       0      f0    -0.0001
   2296 C           10.0412   -11.6051     9.2370 C       0      f0     0.0314
   2297 C           11.1803    -8.2764     7.6095 C       0      f0    -0.0027
   2298 H           11.9885    -8.7630    12.0210 H       0      f0     0.0963
   2299 C           13.7359    -9.4526     7.6232 C       0      f0    -0.0160
   2300 H           13.3673    -8.7973     8.5245 H       0      f0     0.0279
   2301 C           14.3296   -11.7047    11.0801 C       0      f0     0.0020
   2302 C           14.7691   -11.4263     9.8813 C       0      f0     0.0176
   2303 H           15.3055    -7.5041     7.3486 H       0      f0     0.0119
   2304 C           15.0313   -10.9802     8.7595 C     108    f108     0.0099
   2305 C           15.9781    -7.3489    11.2974 C      64     f64    -0.0272
   2306 C           15.7350   -11.4357     7.4812 C     108    f108     0.0028
   2307 C           16.2684    -8.7437    11.3700 C      63     f63     0.0351
   2308 H          -16.4182    -8.5367     8.9930 H       0      f0     0.0230
   2309 C          -15.7918    -3.9266     8.1219 C       8      f8     0.0181
   2310 C          -14.7501    -3.0124     8.8164 C       0      f0     0.0102
   2311 C          -14.3667    -3.0068    10.0337 C       0      f0     0.0400
   2312 O          -14.3815    -6.6834    10.4815 O      24     f24    -0.4563
   2313 C          -13.8208    -4.7789     7.7959 C       0      f0     0.0010
   2314 C          -13.5859    -2.3425    10.7271 C       0      f0     0.0194
   2315 C          -12.8112    -5.6019     8.3394 C       0      f0     0.0245
   2316 C          -11.7224    -6.2576     8.8917 C      12     f12     0.0049
   2317 C          -10.4454    -5.8787     9.5107 C      12     f12    -0.0062
   2318 C          -10.2969    -6.4719    10.7242 C      12     f12     0.0121
   2319 H           -9.7379    -4.3944     8.4208 H       0      f0     0.0219
   2320 C           -9.2537    -5.0926     9.0988 C      12     f12    -0.0191
   2321 C           -9.2853    -5.5321    11.2677 C      12     f12    -0.0119
   2322 C           -8.3724    -4.9219    10.2991 C      12     f12     0.0049
   2323 H           -8.3431    -3.8388    11.6377 H       0      f0     0.0238
   2324 C           -7.4530    -3.7230    10.9490 C       0      f0    -0.0295
   2325 H           -7.3692    -2.8327    10.2593 H       0      f0     0.0396
   2326 H           -6.3965    -6.3198     8.8663 H       0      f0     0.0263
   2327 C           -6.1255    -4.4148    10.9077 C       0      f0    -0.0103
   2328 H           -6.4614    -5.6207    11.0851 H       0      f0     0.0402
   2329 C           -5.5654    -6.6610     8.1534 C       0      f0    -0.0395
   2330 C           -5.2524    -4.4388    10.0892 C       0      f0    -0.0094
   2331 C           -4.2509    -5.7495     7.9389 C       0      f0    -0.0019
   2332 C           -4.1483    -4.7365     9.2240 C       0      f0    -0.0068
   2333 C           -3.2767    -3.5378     9.3772 C       0      f0    -0.0129
   2334 C           -3.2173    -6.2698     7.3399 C       0      f0    -0.0036
   2335 H           -3.1172    -7.1262    10.1339 H       0      f0     0.0206
   2336 C           -1.5851    -2.2252    11.5886 C       0      f0     0.0025
   2337 C           -1.2225    -6.3830     9.6800 C       0      f0     0.0053
   2338 C           -0.0592    -5.6488     9.5691 C       0      f0    -0.0205
   2339 H           -0.4313    -4.3665     9.2911 H       0      f0     0.0186
   2340 C            0.4868    -3.9024    11.7428 C       0      f0    -0.0112
   2341 H            0.6736    -5.3476    11.7468 H       0      f0     0.0149
   2342 C            1.2418    -6.5017     9.4744 C       0      f0    -0.0044
   2343 C            0.6547    -2.9371    10.9665 C       0      f0     0.0017
   2344 C            1.4655    -2.9901     7.4847 C       0      f0    -0.0033
   2345 H            3.3648    -3.1193    11.0992 H       0      f0     0.0177
   2346 C            3.4589    -5.0476    11.9576 C       0      f0     0.0192
   2347 H            3.7205    -5.7379     7.5930 H       0      f0     0.0289
   2348 C            3.9486    -2.9615     8.0660 C       0      f0    -0.0159
   2349 C            4.0051    -3.8408    11.5696 C       0      f0    -0.0145
   2350 C            4.8889    -4.0097     7.6512 C       0      f0    -0.0012
   2351 H            5.1153    -6.2766     7.0922 H       0      f0     0.0246
   2352 C            5.2471    -3.9399    10.7392 C       0      f0     0.0689
   2353 C            6.0438    -4.1384     8.5716 C       0      f0    -0.0143
   2354 C            6.5273    -3.3854     9.9736 C       0      f0    -0.0019
   2355 H            7.3603    -6.9367     9.9168 H       0      f0    -0.0141
   2356 C            7.0096    -4.8639     8.1367 C       0      f0    -0.0173
   2357 C            7.7490    -4.8725    10.9363 C       0      f0     0.1559
   2358 C            7.9852    -6.4864    10.7305 C       0      f0     0.3259
   2359 C            8.1992    -5.4712     8.2069 C       0      f0    -0.0137
   2360 C            8.5711    -3.9712    11.0648 C       0      f0    -0.0001
   2361 C            9.4621    -2.9906    11.3831 C       0      f0     0.0177
   2362 C            9.5657    -4.8307     8.4234 C       0      f0    -0.0284
   2363 H           10.2744    -4.6994     9.2632 H       0      f0     0.0240
   2364 C           10.2958    -5.9223     7.7955 C       0      f0     0.0072
   2365 C           10.5544    -2.6240    10.4197 C       0      f0    -0.0264
   2366 H           11.3110    -4.3741    11.7296 H       0      f0     0.0177
   2367 C           10.9098    -3.7067     7.5738 C       0      f0    -0.0131
   2368 H           11.1951    -3.4292    10.0424 H       0      f0     0.0107
   2369 C           11.4449    -6.8634     7.6582 C       0      f0    -0.0000
   2370 C           12.2827    -3.7540     8.0836 C       0      f0    -0.0137
   2371 C           12.9482    -2.4046     8.4348 C       0      f0    -0.0296
   2372 C           13.3843    -4.9433     7.9507 C       8      f8    -0.0157
   2373 C           13.5046    -6.7256    11.7781 C     110    f110    -0.0191
   2374 H           14.1627    -5.7747     9.6574 H       0      f0     0.0208
   2375 C           14.7871    -5.6274    11.6466 C      64     f64    -0.0151
   2376 H           14.5311    -4.5004    11.8737 H       0      f0     0.0199
   2377 C           14.9913    -4.8413     8.1233 C       8      f8    -0.0097
   2378 C           14.7914    -6.2855    10.2493 C      64     f64    -0.0324
   2379 H           15.8320    -6.3152     9.6155 H       0      f0     0.0149
   2380 H           16.3611    -4.4381     9.9423 H       0      f0     0.0499
   2381 C           16.1979    -4.7749     8.9436 C       8      f8    -0.0171
   2382 H          -15.9605     2.7195    10.7391 H       0      f0     0.0234
   2383 C          -16.1196     1.7581     8.4565 C       0      f0    -0.0279
   2384 C          -15.8695     1.8419    11.5013 C       0      f0     0.0157
   2385 O          -15.7647    -0.4451     9.9504 O       0      f0    -0.5001
   2386 C          -15.3538     0.6180     8.5729 C       0      f0     0.1512
   2387 H          -14.9002    -0.8226     9.6647 H       0      f0     0.2275
   2388 C          -14.3832    -0.5073     7.6914 C       0      f0    -0.0042
   2389 C          -14.4564     1.7909    11.8365 C       0      f0     0.0179
   2390 C          -13.8231    -1.7734     8.1862 C       0      f0    -0.0145
   2391 H          -11.8042     2.0030     7.0626 H       0      f0     0.0483
   2392 C          -13.0612     1.3557    11.8630 C       0      f0     0.0042
   2393 H          -13.0263     2.3301     9.1682 H       0      f0     0.0206
   2394 C          -12.8157    -1.5277    10.8924 C       0      f0     0.0024
   2395 C          -12.6140    -1.7150     7.3988 C       0      f0    -0.0123
   2396 C          -11.8576     0.9879    11.8407 C       0      f0    -0.0114
   2397 H          -11.6263    -1.3568     7.8785 H       0      f0     0.0394
   2398 C          -11.6953    -0.5990    11.1384 C       0      f0    -0.0153
   2399 H          -11.4748     2.0352    11.5112 H       0      f0     0.0272
   2400 H          -10.6519    -1.1932    10.6854 H       0      f0     0.1150
   2401 O           -9.2877    -0.7320     9.7202 O      50     f50    -0.5514
   2402 C           -8.7054     0.0376    10.8673 C      50     f50     0.2039
   2403 C           -8.2295    -0.3870     8.6524 C      50     f50     0.2459
   2404 C           -7.5677     0.7036    10.3332 C      50     f50     0.2352
   2405 C           -7.1616     0.4541     9.2154 C      50     f50    -0.1157
   2406 O           -6.9279     1.8484    11.0318 O       0      f0    -0.4362
   2407 H           -6.2803     1.0660     8.8095 H       0      f0     0.0704
   2408 H           -4.6765    -1.5711     7.6723 H       0      f0     0.0131
   2409 H           -3.9991     1.4353    10.9292 H       0      f0     0.0430
   2410 H           -3.8165     0.2997     8.6377 H       0      f0     0.0235
   2411 C           -3.5828    -1.4652     8.2488 C       0      f0    -0.0330
   2412 C           -3.0470     1.4510    11.6807 C       0      f0    -0.0237
   2413 C           -2.8682    -0.1814     8.0044 C       0      f0    -0.0207
   2414 C           -2.6930    -2.2283     9.5822 C       0      f0     0.0022
   2415 H           -3.0087    -1.7584     7.2800 H       0      f0     0.0200
   2416 C           -2.1598     1.6663     8.9951 C       0      f0     0.0031
   2417 C           -2.0163     1.5602    10.6388 C       0      f0    -0.0002
   2418 C           -1.7132     0.2042     8.7353 C       0      f0    -0.0021
   2419 C           -1.5847    -1.8417    10.3035 C       0      f0    -0.0226
   2420 H           -1.4846    -0.6751    10.3680 H       0      f0     0.0236
   2421 C           -0.6468     1.7548    10.9155 C       0      f0    -0.0039
   2422 C            0.4380     2.1754    10.9143 C       0      f0     0.0072
   2423 H            0.7160    -1.1768    10.5337 H       0      f0     0.0290
   2424 C            1.0816    -2.1154    10.0937 C       0      f0    -0.0188
   2425 H            2.1268     2.2985    10.4344 H       0      f0     0.0528
   2426 C            2.0166    -2.1715     8.6580 C       0      f0     0.0247
   2427 C            3.5354    -1.7923     8.3454 C       0      f0    -0.0257
   2428 O            4.1503     0.5889     8.3661 O       0      f0    -0.4476
   2429 C            4.6154    -0.6482     8.4108 C       0      f0     0.2776
   2430 C            5.3184    -0.2666    12.1414 C       0      f0    -0.0070
   2431 H            5.6271    -0.7811     8.7296 H       0      f0    -0.0208
   2432 C            5.8407    -0.6073    10.7456 C       0      f0    -0.0220
   2433 C            6.2844    -2.0347    10.3712 C       0      f0    -0.0015
   2434 H            5.9876     0.3382    10.1926 H       0      f0     0.0511
   2435 H            9.2474    -1.6958     7.7194 H       0      f0     0.0206
   2436 O           10.0663     2.2229     9.4661 O     111    f111    -0.3608
   2437 C           11.7903    -1.8704    10.7009 C       0      f0     0.0090
   2438 H           12.0390    -1.6301     8.6113 H       0      f0     0.0571
   2439 C           12.8519    -1.1602    10.9185 C       0      f0     0.0217
   2440 C           14.0202    -0.4032    11.4108 C      51     f51     0.2263
   2441 C           14.1311    -1.9881     7.8185 C     101    f101     0.1322
   2442 O           14.6009     0.9608    10.6344 O      51     f51    -0.3156
   2443 O           14.8842    -0.6382     8.3269 O     101    f101    -0.3310
   2444 C           15.8024     1.0898    11.8510 C      51     f51     0.1207
   2445 H           15.7315     2.0904     8.7796 H       0      f0     0.0968
   2446 O          -16.2036     6.8625     8.0470 O       0      f0    -0.5758
   2447 C          -16.0857     4.2292     7.2705 C       0      f0    -0.0497
   2448 C          -15.8282     5.3204     7.9810 C       0      f0     0.2029
   2449 C          -14.7814     5.0668     8.7852 C       0      f0    -0.0445
   2450 H          -14.4385     6.9996     8.5558 H       0      f0     0.1011
   2451 C          -13.9159     5.3987    10.0043 C       0      f0    -0.0186
   2452 C          -12.5544     2.5432     8.1693 C       0      f0    -0.0245
   2453 C          -12.5876     5.0887    10.4644 C       0      f0     0.0596
   2454 C          -11.7502     3.6745     7.6017 C       0      f0     0.0508
   2455 C          -11.8729     6.3897     7.2803 C       0      f0     0.0251
   2456 C          -11.3305     5.2952    11.4215 C     112    f112     0.0371
   2457 O          -10.4769     4.8745     9.8777 O     112    f112    -0.4622
   2458 C           -9.8339     4.9813    11.2084 C     112    f112     0.2017
   2459 C           -8.8246     5.8602    11.6100 C       0      f0    -0.0313
   2460 C           -8.6398     5.1277     7.2354 C       0      f0     0.0130
   2461 H           -8.5145     4.8586     9.2815 H       0      f0     0.0885
   2462 C           -7.7990     6.7870     9.1119 C       0      f0     0.0019
   2463 C           -7.7565     5.5135     9.4961 C       0      f0    -0.0093
   2464 C           -6.4301     5.1325     9.9247 C       0      f0     0.0157
   2465 C           -4.8991     5.4631     9.8420 C       0      f0     0.2882
   2466 H           -4.1595     5.5390    10.6961 H       0      f0    -0.0127
   2467 O           -4.4266     5.1760     8.6507 O       0      f0    -0.4670
   2468 C           -2.6468     6.8537    10.7546 C     113    f113     0.0396
   2469 H           -1.7912     4.9117    12.0938 H       0      f0     0.0217
   2470 H           -1.1681     5.7278     9.3219 H       0      f0     0.0264
   2471 C           -1.7090     2.6285     7.9921 C       0      f0     0.0043
   2472 C           -1.6376     5.7048    11.4851 C       0      f0    -0.0321
   2473 C           -0.9573     5.6294     8.2745 C       0      f0    -0.0094
   2474 H           -0.6214     6.2472    11.0369 H       0      f0     0.0259
   2475 C            0.5733     5.2293     8.3475 C       0      f0    -0.0047
   2476 C            0.8559     4.6049     9.6330 C       0      f0    -0.0092
   2477 C            1.7042     2.7827    11.1967 C       0      f0    -0.0417
   2478 C            1.3627     5.2586     7.2699 C      10     f10     0.0071
   2479 C            2.0171     4.1848    10.2207 C       0      f0     0.0059
   2480 C            2.8004     4.2366     7.1500 C      10     f10    -0.0186
   2481 H            3.3346     3.2980     7.7097 H       0      f0     0.0572
   2482 C            3.2195     4.8448    10.0348 C       0      f0    -0.0334
   2483 H            3.2335     5.7858    12.6267 H       0      f0     0.0161
   2484 H            2.9058     5.2363     9.2239 H       0      f0     0.0263
   2485 H            5.0170     4.7594     7.5743 H       0      f0     0.0248
   2486 C            4.5077     4.3541    10.3314 C       0      f0     0.0144
   2487 C            4.7457     4.2765    12.0452 C       0      f0    -0.0267
   2488 H            5.8521     3.5515     8.9983 H       0      f0     0.0391
   2489 C            5.2978     4.4304     9.1509 C       0      f0    -0.0293
   2490 C            5.5303     5.5745     8.2166 C       0      f0    -0.0160
   2491 H            6.5720     7.0726    10.6516 H       0      f0     0.0209
   2492 C            6.5939     6.5772     7.9645 C       0      f0    -0.0118
   2493 C            6.9087     7.1757    11.6655 C       0      f0    -0.0184
   2494 C            9.1481     2.5262    10.6069 C     111    f111     0.1958
   2495 H            8.9747     6.5608    11.4993 H       0      f0     0.0262
   2496 C            9.3591     6.4270    10.6073 C      13     f13    -0.0300
   2497 C            9.4470     3.7302    10.0685 C     111    f111     0.0798
   2498 C            9.6225     5.2058     9.8662 C      13     f13    -0.0075
   2499 C           10.4363     5.9123     8.7852 C      13     f13     0.0049
   2500 C           11.5672     5.1266     8.2264 C       0      f0    -0.0064
   2501 C           12.1495     5.4361    11.8126 C       0      f0    -0.0205
   2502 C           12.2579     4.8076    10.6079 C       0      f0     0.0237
   2503 C           12.3142     4.3003     9.2138 C       0      f0     0.0472
   2504 H           13.3554     4.2981     9.0009 H       0      f0     0.0234
   2505 C           15.8879     6.6575    12.0905 C      35     f35    -0.0126
   2506 C          -16.1708    11.2107     9.5180 C       0      f0     0.0357
   2507 C          -16.2124     8.6170    11.8951 C      35     f35     0.0009
   2508 H           15.9090     6.6062     8.7585 H       0      f0     0.2201
   2509 H          -15.4670    11.7536    10.4017 H       0      f0     0.0347
   2510 C          -15.1647     8.9617    10.8478 C       0      f0    -0.0014
   2511 C          -15.3301    11.1397     8.4576 C       0      f0    -0.0227
   2512 C          -14.5581     8.8500     9.8186 C       0      f0     0.0084
   2513 H          -14.1604    11.5980     8.7262 H       0      f0     0.0077
   2514 C          -14.0398     8.1468     8.7929 C       0      f0     0.0118
   2515 C          -13.0255     8.5172     7.9679 C       0      f0    -0.0200
   2516 H          -12.4342     9.2534     8.3989 H       0      f0     0.0138
   2517 C          -12.1450     7.4679     7.1735 C       0      f0     0.0070
   2518 H          -11.5321    12.6380    11.7732 H       0      f0     0.0153
   2519 H          -11.3215     7.7723    11.2121 H       0      f0     0.0296
   2520 H          -11.1563     9.6362    10.8268 H       0      f0     0.0198
   2521 C          -10.9874     8.6439    10.7351 C       0      f0    -0.0449
   2522 C           -9.7660     8.5939    10.0471 C       0      f0     0.0115
   2523 C           -8.8917     8.6741     9.1203 C       0      f0    -0.0146
   2524 H           -9.7391     9.1729     8.4447 H       0      f0     0.0121
   2525 C           -8.5674     7.5594     8.0957 C       0      f0     0.0043
   2526 H           -7.1631     7.5593     9.8561 H       0      f0     0.0509
   2527 H           -6.4026    10.7217     9.3682 H       0      f0     0.0339
   2528 H           -4.5897    11.1700     7.4510 H       0      f0     0.0177
   2529 C           -5.3775    11.2702     9.7013 C      25     f25     0.0345
   2530 C           -4.4517    11.2089     8.5982 C      25     f25    -0.0156
   2531 C           -2.9235    11.1399     8.9001 C      25     f25     0.0548
   2532 C           -2.9356     7.2520     9.7820 C     113    f113     0.2537
   2533 O           -2.6409     8.5468    10.2627 O     113    f113    -0.4070
   2534 C           -2.3268    10.6115     7.7075 C       0      f0     0.0070
   2535 C           -2.1056    11.9914     9.6976 C      25     f25    -0.0003
   2536 C           -0.1026     9.9498     8.0097 C       0      f0     0.0104
   2537 C            0.8394     8.5823    10.3649 C       0      f0     0.0147
   2538 C            0.5290     9.2160     9.0726 C       0      f0     0.0104
   2539 C            1.3699     8.5473    11.3440 C       0      f0    -0.0095
   2540 H            1.1470    10.9068    11.7123 H       0      f0     0.0261
   2541 C            2.6067     9.2078    12.0092 C       0      f0    -0.0208
   2542 H            3.1657     9.9687    11.4125 H       0      f0     0.0202
   2543 H            3.9343     8.7895     8.5179 H       0      f0     0.0226
   2544 C            4.3493    10.6882     7.4650 C       0      f0    -0.0280
   2545 C            4.5915     9.6024     8.3682 C       0      f0    -0.0074
   2546 C            4.9615     9.5374     9.7989 C       0      f0    -0.0032
   2547 C            5.3954    11.7535     7.7016 C       0      f0    -0.0038
   2548 C            5.6521     9.6451    10.9317 C       0      f0    -0.0131
   2549 C            5.8476     8.2773    11.8568 C       0      f0    -0.0028
   2550 H            6.2896     7.4956     8.5478 H       0      f0     0.0233
   2551 H            6.0101    10.6147    11.3494 H       0      f0     0.0247
   2552 C            6.6689    10.7945     7.5363 C       0      f0     0.0375
   2553 H            6.9903     8.6650     7.0548 H       0      f0     0.0328
   2554 O            9.6595    11.0759     8.9077 O      52     f52    -0.4846
   2555 C            9.7553     7.7268     9.9536 C      13     f13     0.0233
   2556 C           10.4065    10.7027    11.4097 C       0      f0     0.0606
   2557 C           10.5707     7.3063     8.8863 C      13     f13    -0.0083
   2558 C           10.7660     8.6761    10.4576 C      13     f13     0.0232
   2559 C           10.5269     9.6169    11.8424 C       0      f0    -0.0238
   2560 C           11.2717     8.0648     7.7667 C      13     f13     0.0176
   2561 C           12.0457     9.2194     9.6903 C      13     f13    -0.0039
   2562 C           12.1587     9.2240     8.2485 C      13     f13     0.0317
   2563 H           12.4748     9.7815    10.5269 H       0      f0     0.0196
   2564 C           13.1790     9.5489     7.1452 C       0      f0    -0.0080
   2565 C           13.5534    10.9385     7.6501 C      53     f53     0.0032
   2566 H           14.2099    10.6668    11.6276 H       0      f0     0.0236
   2567 C           14.4075    10.9629     9.0969 C      53     f53    -0.0332
   2568 C           15.2013    10.4256    11.2327 C       0      f0     0.0107
   2569 C           15.5994     9.5315    12.3562 C      35     f35    -0.0090
   2570 C           15.4327    10.3220     9.8270 C       0      f0     0.0292
   2571 C          -14.3751    14.1550    12.0125 C       0      f0    -0.0155
   2572 H          -14.1616    12.2996     7.4355 H       0      f0     0.0222
   2573 H          -14.8360    13.8014    11.0921 H       0      f0     0.0388
   2574 H          -13.7560    15.5026     7.4917 H       0      f0     0.0309
   2575 C          -13.5879    16.2810     8.3236 C       0      f0    -0.0379
   2576 C          -13.3794    15.9234     9.4870 C       0      f0    -0.0009
   2577 C          -12.6966    15.9984    10.8469 C       0      f0    -0.0065
   2578 C          -12.3484    14.5048    11.3859 C       0      f0    -0.0034
   2579 H          -12.4569    12.6387     7.5697 H       0      f0     0.0105
   2580 H          -11.5371    13.6779     8.9613 H       0      f0     0.0170
   2581 C          -10.9727    14.4755    11.1995 C       0      f0    -0.0181
   2582 C          -10.9450    14.0658     9.8215 C       0      f0    -0.0221
   2583 H           -9.9645    14.7023    11.7112 H       0      f0     0.0157
   2584 C           -9.5888    13.8933     9.3740 C       0      f0    -0.0083
   2585 H           -9.5709    16.4817    10.1336 H       0      f0     0.0192
   2586 C           -8.2826    14.0261     9.1869 C       0      f0    -0.0006
   2587 H           -7.0679    12.8901    10.8744 H       0      f0     0.0296
   2588 C           -7.0742    14.1150     9.1095 C       0      f0    -0.0087
   2589 C           -6.4060    13.6330    10.5468 C       0      f0    -0.0177
   2590 C           -6.1212    14.0004     7.6440 C     105    f105     0.0833
   2591 C           -6.3834    16.2578    11.8635 C       0      f0    -0.0125
   2592 C           -6.2320    14.8916    11.6751 C       0      f0    -0.0083
   2593 C           -5.1322    12.7449    10.2153 C      25     f25    -0.0002
   2594 C           -4.3514    15.0790    10.4274 C       0      f0    -0.0223
   2595 C           -4.1583    16.2405     9.4443 C       0      f0     0.0214
   2596 H           -4.2608    15.6154    11.1760 H       0      f0     0.0170
   2597 C           -3.9508    13.5498    10.1770 C      25     f25     0.0135
   2598 H           -3.1904    16.7371     9.6943 H       0      f0     0.0201
   2599 C           -2.6131    13.1327    10.2693 C      25     f25    -0.0008
   2600 C           -1.7419    15.7535    11.6925 C      16     f16    -0.0122
   2601 H           -0.6902    12.1779     9.3171 H       0      f0     0.0142
   2602 H           -0.0699    13.2621    10.8832 H       0      f0     0.0213
   2603 C           -0.1414    12.6931    11.7293 C       0      f0    -0.0055
   2604 H            1.3919    12.0948     8.6618 H       0      f0     0.0151
   2605 C            0.6693    14.4226     7.7350 C      22     f22    -0.0146
   2606 C            1.0717    11.9836    11.4521 C       0      f0    -0.0168
   2607 C            1.6342    13.0329     9.5046 C       0      f0    -0.0236
   2608 C            1.9216    14.0171     8.3961 C      22     f22     0.0010
   2609 C            2.0904    12.9693    10.8635 C       0      f0     0.0075
   2610 C            3.1248    14.7628     7.7218 C      22     f22    -0.0227
   2611 C            3.5911    13.0460    10.9044 C       0      f0    -0.0013
   2612 H            3.8884    14.0562     7.8073 H       0      f0     0.0211
   2613 C            4.4539    13.1664     9.8248 C       0      f0    -0.0055
   2614 H            5.0060    15.6293     6.9155 H       0      f0     0.0207
   2615 C            4.9753    12.5806     8.9568 C       0      f0    -0.0032
   2616 C            6.0437    15.3665     7.6179 C       0      f0    -0.0717
   2617 H            6.5644    14.2903     7.8842 H       0      f0     0.0280
   2618 C            6.4082    14.5955    11.2493 C       0      f0    -0.0250
   2619 C            6.5276    16.4963     8.4627 C     107    f107     0.1619
   2620 H            5.9401    15.2468    10.3789 H       0      f0     0.0845
   2621 H            7.3184    14.2016    11.1306 H       0      f0     0.0323
   2622 C            8.9556    12.0732     7.7956 C      52     f52     0.1786
   2623 C            9.3366    13.4714     7.7826 C      52     f52    -0.0362
   2624 C            9.9016    15.8749     7.2270 C       0      f0     0.0015
   2625 C            9.9988    13.5593     8.9722 C      52     f52    -0.0431
   2626 C           10.0384    12.2444     9.6359 C      52     f52     0.2538
   2627 C           10.3437    12.0824    10.9860 C       0      f0    -0.0718
   2628 H           10.2128    16.1460    11.4220 H       0      f0     0.0289
   2629 H           10.1767    13.0829    11.6344 H       0      f0     0.0190
   2630 C           11.2021    15.9202    11.2341 C      23     f23    -0.0202
   2631 C           11.2751    14.4565     8.7695 C       0      f0    -0.0081
   2632 C           11.6384    15.1136    10.0820 C      23     f23     0.0010
   2633 H           11.6910    14.4915     7.7368 H       0      f0     0.0274
   2634 C           12.7438    11.9019     7.2788 C      53     f53    -0.0099
   2635 C           13.0616    14.9612     9.6241 C      23     f23    -0.0141
   2636 C           13.5337    12.9851     8.2810 C      53     f53    -0.0520
   2637 C           13.6716    14.3138     8.7077 C      11     f11     0.0428
   2638 C           13.9233    15.7522    10.2803 C      23     f23     0.0165
   2639 C           14.1036    15.9248    11.6573 C      23     f23     0.0078
   2640 C           14.0687    12.2479     9.3141 C      53     f53     0.1986
   2641 H           14.2454    13.2795    11.0573 H       0      f0     0.2518
   2642 O           14.9798    13.0238    10.4368 O       0      f0    -0.5834
   2643 C           14.8969    15.0207     8.3022 C      11     f11     0.0077
   2644 C           14.7712    16.1090     9.1473 C      11     f11     0.0047
   2645 H           15.4582    14.2982     7.6171 H       0      f0     0.0340
   2646 C          -15.4222   -12.6149    14.8224 C       0      f0    -0.0060
   2647 C          -14.9909   -16.5160    16.2376 C       0      f0    -0.0088
   2648 C          -15.2262   -13.8529    15.3334 C       0      f0     0.0165
   2649 C          -14.9800   -14.8482    15.8574 C       0      f0     0.0004
   2650 H          -13.8803   -16.6383    11.7191 H       0      f0     0.0203
   2651 H          -12.9177   -14.4737    13.6274 H       0      f0     0.0506
   2652 C          -12.8591   -14.2175   -16.9006 C       0      f0    -0.0018
   2653 H          -12.4881    16.4960    14.0111 H       0      f0     0.0369
   2654 C          -11.8052   -14.6472    15.8672 C       0      f0    -0.0165
   2655 C          -12.0137   -14.7970    14.3882 C       0      f0    -0.0071
   2656 H          -11.2811   -15.3686    16.8064 H       0      f0     0.0225
   2657 C          -11.0000   -15.3194    13.4948 C       0      f0    -0.0163
   2658 H           -9.8816   -15.3052    13.8710 H       0      f0     0.0163
   2659 H           -9.3486   -15.7287    15.7985 H       0      f0     0.0171
   2660 C           -8.8447   -15.0930    16.7055 C       0      f0    -0.0098
   2661 C           -8.3505   -13.9798    16.5790 C       0      f0    -0.0286
   2662 H           -7.7768    16.3634    16.0385 H       0      f0     0.0186
   2663 H           -6.8919   -15.4782    14.6808 H       0      f0     0.0171
   2664 C           -6.3547   -16.1058    12.5468 C       0      f0    -0.0223
   2665 C           -6.3351   -16.1230    13.9104 C       0      f0    -0.0214
   2666 H           -4.4450   -12.8722    15.4767 H       0      f0     0.0150
   2667 H           -4.3399   -14.5012    12.4099 H       0      f0     0.0114
   2668 C           -3.1298   -13.9386    16.2480 C      14     f14     0.0184
   2669 C           -3.3903   -12.9436    15.3150 C      14     f14    -0.0327
   2670 C           -3.0813   -14.2584    12.1911 C       0      f0    -0.0245
   2671 H           -2.7983   -16.5734    15.6877 H       0      f0     0.0205
   2672 C           -2.1549   -12.5161    14.6785 C      14     f14    -0.0060
   2673 C           -2.2778   -14.6805    15.8043 C      14     f14    -0.0810
   2674 C           -2.0324   -15.9511    15.4641 C       0      f0     0.0523
   2675 C           -1.6111   -16.5402    12.4796 C      16     f16    -0.0024
   2676 C           -1.4319   -16.5794    14.1156 C      16     f16     0.0394
   2677 C           -1.0456   -13.0768    15.2979 C      14     f14    -0.0210
   2678 C           -1.1366   -14.2657    15.9164 C      14     f14     0.2366
   2679 C            0.1872   -12.5832    15.4111 C      14     f14    -0.0358
   2680 O            0.2053   -14.8679    15.4788 O      14     f14    -0.4841
   2681 C            0.9962   -13.5813    15.3116 C      14     f14     0.2115
   2682 H            1.5539   -16.1902    13.0023 H       0      f0     0.0573
   2683 C            2.3979   -13.4038    15.5462 C      54     f54     0.1796
   2684 H            2.8694   -14.7797   -16.7430 H       0      f0     0.0683
   2685 C            2.8582   -16.1390    13.6200 C      15     f15    -0.0237
   2686 O            3.0838   -12.2935    14.6941 O      54     f54    -0.4659
   2687 C            2.9973   -14.1298    16.5069 C      54     f54    -0.1017
   2688 C            3.8630   -15.3038    12.8904 C      15     f15    -0.0026
   2689 C            4.5006   -13.0617    14.8806 C      54     f54     0.0949
   2690 C            4.5152   -13.8180    16.3372 C      54     f54     0.2722
   2691 C            5.2219   -15.3858    13.2929 C      15     f15    -0.0073
   2692 H            4.6483   -15.7426    15.2667 H       0      f0     0.0639
   2693 O            5.4998   -14.5646    16.8418 O       0      f0    -0.4818
   2694 C            5.5127   -16.2735    14.5587 C      15     f15    -0.0251
   2695 H            5.9008   -14.6713    12.7842 H       0      f0     0.0320
   2696 H            6.3877   -16.0841    15.1537 H       0      f0     0.0547
   2697 H            6.9371   -12.2062    14.3541 H       0      f0     0.0249
   2698 H            7.5693   -14.7774    15.8488 H       0      f0     0.0670
   2699 C            8.4012   -15.4975    15.2865 C       0      f0    -0.0232
   2700 C            8.7086   -15.3030    13.9021 C       0      f0     0.0026
   2701 C            9.0419   -14.2414    12.8711 C       0      f0     0.0082
   2702 H            9.4206   -15.9800    16.6440 H       0      f0     0.0297
   2703 C            9.5787   -15.0406    16.0969 C       0      f0    -0.0135
   2704 C           10.6103   -14.0194    16.1102 C       0      f0    -0.0221
   2705 H           10.6006   -13.4138    15.2016 H       0      f0     0.0220
   2706 H           11.7407   -12.2969    15.5512 H       0      f0     0.0219
   2707 C           13.2545   -14.0702    16.7658 C      69     f69    -0.0037
   2708 C           13.3986   -12.6953    16.0902 C       0      f0    -0.0072
   2709 H          -16.2729   -14.6726    14.1198 H       0      f0     0.0185
   2710 H           14.9539   -16.1535    12.7651 H       0      f0     0.0185
   2711 C           15.8062   -13.9582    13.3708 C       0      f0    -0.0170
   2712 H           16.2545    16.4570    13.9797 H       0      f0     0.0148
   2713 C           16.3266   -12.7236    13.7413 C       0      f0     0.0075
   2714 C          -16.0650    -9.0369    12.4960 C      34     f34     0.0166
   2715 C          -16.1471    -8.3829    13.7596 C      34     f34    -0.0412
   2716 C          -15.7529   -10.3160    13.0814 C       0      f0     0.0200
   2717 H          -15.3973   -11.5769    15.2599 H       0      f0     0.0295
   2718 H          -15.2997    -8.6596    14.2425 H       0      f0     0.0255
   2719 H          -14.7951    -9.3025    15.7672 H       0      f0     0.0149
   2720 H          -14.9118   -10.4379    13.8888 H       0      f0     0.0110
   2721 C          -14.2850    -8.8781    16.6419 C       0      f0    -0.0284
   2722 C          -13.0459    -9.4519    12.1749 C       7      f7    -0.0562
   2723 C          -12.9867    -8.5341    15.9422 C       0      f0     0.0316
   2724 C          -12.6427    -9.2431    13.5110 C       7      f7     0.0276
   2725 C          -12.4245   -10.7848    16.4307 C       0      f0    -0.0028
   2726 C          -12.3080   -10.0939    14.5801 C       0      f0    -0.0120
   2727 C          -12.1884    -7.2965    12.2570 C       7      f7     0.0510
   2728 C          -11.9578    -8.1880    13.3778 C       7      f7    -0.0759
   2729 C          -11.7067    -8.2224    15.6977 C       0      f0    -0.0574
   2730 C          -11.8030   -11.2675    15.0927 C       0      f0    -0.0184
   2731 H          -11.5176   -10.6456    12.2341 H       0      f0     0.0021
   2732 C          -11.4135    -7.2842    14.4160 C       0      f0     0.3379
   2733 H          -11.1817   -12.0146    14.8624 H       0      f0     0.0245
   2734 H          -10.9292    -8.4285    16.5399 H       0      f0     0.0364
   2735 H           -8.0283   -12.2482    13.4802 H       0      f0     0.0163
   2736 C           -7.8340    -9.2347    15.7968 C       0      f0     0.0379
   2737 C           -7.8992   -11.1592    13.5926 C       0      f0    -0.0277
   2738 C           -7.6262   -10.2629    14.4349 C       0      f0     0.0309
   2739 C           -7.0961   -10.1322    16.6360 C       0      f0    -0.0201
   2740 O           -6.6895    -7.5740    13.1265 O       0      f0    -0.4281
   2741 H           -6.0943   -10.6233    16.3986 H       0      f0     0.0191
   2742 H           -4.1361    -7.6770    13.4868 H       0      f0    -0.0116
   2743 H           -2.8948   -10.9760    16.2443 H       0      f0     0.0172
   2744 H           -2.2620   -11.5398    13.9021 H       0      f0     0.0148
   2745 H           -2.4132   -10.1755    12.8759 H       0      f0     0.0230
   2746 C           -1.6408    -8.7218    14.5198 C       0      f0     0.0028
   2747 C           -1.3372    -9.5777    15.8223 C       0      f0     0.0012
   2748 C           -1.4396    -7.3004    14.2499 C       0      f0    -0.0149
   2749 H           -1.0489   -10.5117    14.0746 H       0      f0     0.0262
   2750 C           -1.3863    -9.7851    13.3578 C       0      f0    -0.0390
   2751 C           -0.2483   -10.4126    15.8471 C       0      f0    -0.0193
   2752 C            0.7079   -11.3214    15.8173 C       0      f0     0.0237
   2753 C            0.8658    -9.0203    12.7434 C       0      f0    -0.0171
   2754 H            0.7218    -9.7245    13.5351 H       0      f0     0.0351
   2755 H            1.4775   -10.9852    16.6792 H       0      f0     0.0312
   2756 C            2.2306    -8.5894    13.1062 C       0      f0    -0.0108
   2757 C            2.6882    -7.2995    12.6639 C       0      f0     0.0037
   2758 H            2.6036    -8.4006    14.1781 H       0      f0     0.0331
   2759 C            4.9922   -11.7548    14.6957 C       0      f0     0.0795
   2760 C            6.2946   -11.2307    14.4860 C       0      f0    -0.0414
   2761 H            6.4364    -9.3174    13.8957 H       0      f0     0.0412
   2762 C            6.8352    -9.9095    14.6360 C       0      f0    -0.0004
   2763 C            8.2981    -9.5980    15.2909 C       0      f0    -0.0327
   2764 H            9.1864    -9.9186    14.2938 H       0      f0     0.0742
   2765 H            8.6553    -8.5142    15.4051 H       0      f0     0.0586
   2766 C            9.1645   -10.1422    16.5146 C      70     f70     0.0129
   2767 C            9.7682   -11.2065    15.8763 C       0      f0     0.0197
   2768 O           11.0116   -11.1128    12.6562 O       0      f0    -0.5040
   2769 C           11.1252   -11.2739    15.2628 C       0      f0    -0.0860
   2770 H           11.6777   -10.1216    15.1478 H       0      f0     0.0511
   2771 C           11.5917   -11.2454    13.7027 C       0      f0     0.3638
   2772 H           13.0607    -7.9758    13.6697 H       0      f0     0.0876
   2773 C           12.8367    -7.8176    12.4049 C     110    f110    -0.0176
   2774 C           13.0483   -11.3508    14.1203 C       0      f0    -0.1018
   2775 C           13.7182   -11.5856    15.6976 C       0      f0     0.0241
   2776 C           13.8204   -11.4930    13.3891 C       0      f0     0.0434
   2777 C           14.4974   -10.3718    16.0406 C       0      f0    -0.0065
   2778 C           14.7654   -11.8072    12.4732 C       0      f0    -0.0124
   2779 H           15.2071    -9.8595    15.6243 H       0      f0     0.0193
   2780 C           16.0965   -11.5046    13.1277 C       0      f0     0.0111
   2781 C          -15.9632    -2.9801    16.4294 C      58     f58     0.1386
   2782 C          -13.7371    -3.3982    16.6030 C      58     f58     0.1184
   2783 C          -12.4637    -3.9040    16.1684 C       0      f0     0.2489
   2784 H          -11.5129    -6.3372    12.2016 H       0      f0     0.0847
   2785 H          -12.3814    -4.0402    14.0928 H       0      f0     0.1039
   2786 O          -12.2209    -5.2526    16.3675 O       0      f0    -0.4089
   2787 C          -11.9744    -3.4093    14.7989 C       0      f0    -0.0036
   2788 O          -10.8877    -6.1190    14.0519 O       0      f0    -0.4746
   2789 H           -9.5068    -4.4616    14.3840 H       0      f0     0.0904
   2790 C           -9.1976    -5.2017    12.6072 C       0      f0     0.0936
   2791 C           -8.7195    -4.5173    13.5934 C       0      f0    -0.0365
   2792 H           -8.3303    -6.2563    16.4653 H       0      f0     0.0409
   2793 H           -8.1014    -2.4127    16.7534 H       0      f0     0.0336
   2794 H           -8.0685    -3.7552    13.1947 H       0      f0     0.0284
   2795 C           -5.7929    -6.4788    14.5364 C       0      f0     0.0822
   2796 C           -5.1384    -5.6285    15.6397 C       0      f0    -0.0317
   2797 H           -5.7736    -6.2810    16.6088 H       0      f0     0.1083
   2798 C           -5.1480    -7.2946    13.7176 C       0      f0     0.1011
   2799 C           -4.5135    -4.2800    15.4520 C       0      f0    -0.0018
   2800 C           -4.0470    -3.2778    16.3380 C       0      f0    -0.0001
   2801 H           -3.2196    -4.5264    15.0991 H       0      f0     0.0174
   2802 H           -1.5726    -6.2057    13.5414 H       0      f0     0.0142
   2803 H           -1.3237    -2.6913    13.8822 H       0      f0     0.0186
   2804 C           -0.6236    -6.1550    15.0093 C      65     f65    -0.0038
   2805 C           -0.1534    -5.7073    16.3765 C      65     f65     0.0024
   2806 C            0.2162    -4.4292    13.0204 C       0      f0    -0.0122
   2807 H            0.6143    -3.6751    16.0900 H       0      f0     0.0168
   2808 C            0.3401    -5.3237    14.2844 C      65     f65    -0.0003
   2809 C            0.9834    -4.7705    15.6678 C      65     f65    -0.0157
   2810 C            2.4496    -4.7728    15.6874 C       0      f0     0.0042
   2811 C            2.8955    -6.0053    12.3657 C       0      f0    -0.0051
   2812 C            3.6964    -4.3674    16.3055 C       0      f0    -0.0025
   2813 C            3.8067    -3.1320    15.9586 C       0      f0     0.0016
   2814 C            4.6658    -5.6435    16.4844 C       0      f0    -0.0217
   2815 H            5.4333    -5.8656    15.9199 H       0      f0     0.0387
   2816 O            6.8264    -4.7922    12.0827 O       0      f0    -0.3870
   2817 H            8.2428    -5.5663    16.6820 H       0      f0     0.0300
   2818 C            8.4460    -4.4657    16.7373 C       0      f0     0.0426
   2819 C            9.7366    -2.5515    12.7352 C      55     f55    -0.0365
   2820 O           10.1258    -2.8681    15.2478 O      55     f55    -0.5015
   2821 C           10.3740    -3.3814    13.9626 C      55     f55     0.2716
   2822 C           11.1229    -4.5474    13.7027 C       0      f0    -0.0851
   2823 C           11.4043    -5.7994    14.8631 C     114    f114     0.2832
   2824 O           11.7146    -7.1424    14.8422 O     114    f114    -0.4540
   2825 C           11.7784    -5.5709    16.2063 C     114    f114     0.0075
   2826 C           11.6411    -5.0265    12.3872 C       0      f0    -0.0156
   2827 C           12.0140    -6.4014    12.2076 C     110    f110     0.0736
   2828 H           14.6543    -7.1388    16.4399 H       0      f0     0.0290
   2829 C           14.6756    -6.1774    16.8400 C       0      f0    -0.0406
   2830 H           15.0872    -4.0728    15.9053 H       0      f0     0.0235
   2831 C           15.5573    -3.1978    16.0211 C       0      f0    -0.0510
   2832 C           15.9193    -6.4598    12.5029 C      64     f64     0.0232
   2833 C          -16.2908    -6.9061    13.6254 C      34     f34     0.0193
   2834 O          -15.6650    -0.5801    12.8274 O       0      f0    -0.5552
   2835 H          -15.3904    -0.7387    11.9168 H       0      f0     0.3289
   2836 O          -14.5270    -2.5696    15.1987 O      58     f58    -0.3265
   2837 C          -11.4628    -2.1735    14.2707 C       0      f0     0.0308
   2838 C          -10.9429    -1.3155    13.4633 C       0      f0     0.0150
   2839 H          -10.5954     0.7159    15.8525 H       0      f0     0.0524
   2840 C          -10.5148    -0.5339    12.3779 C       0      f0     0.0175
   2841 C           -9.1764    -0.0313    11.9979 C       0      f0    -0.0696
   2842 C           -8.8215     0.8178    13.2951 C     115    f115     0.2239
   2843 O           -8.3304     0.3147    14.5193 O     115    f115    -0.4756
   2844 C           -7.5826     1.6289    13.9224 C     115    f115     0.1552
   2845 C           -6.1917     2.1195    13.6317 C       0      f0    -0.0208
   2846 H           -5.5837     1.9826    12.5885 H       0      f0     0.0850
   2847 H           -4.8678     0.1507    15.4867 H       0      f0     0.0335
   2848 C           -4.4537     0.4597    16.6382 C       0      f0    -0.0071
   2849 H           -3.3024    -0.1603    12.8458 H       0      f0     0.0258
   2850 C           -2.7759     1.6864    13.1916 C       0      f0    -0.0068
   2851 C           -3.0310     0.4282    13.8584 C       0      f0    -0.0286
   2852 H           -2.4864    -0.3363    14.6415 H       0      f0     0.0182
   2853 C           -1.2761    -2.5409    12.7607 C       0      f0    -0.0244
   2854 C            1.6016     2.1555    16.3720 C       0      f0    -0.0034
   2855 C            2.3269    -0.7074    16.1693 C       0      f0    -0.0039
   2856 C            3.2274    -0.9674    15.3080 C       0      f0    -0.0044
   2857 H            4.2786    -2.3351    13.8401 H       0      f0     0.0294
   2858 C            4.2531    -2.2358    15.0308 C       0      f0    -0.0082
   2859 H            4.6242     2.8209    15.8069 H       0      f0     0.0220
   2860 H            5.1930    -1.4876    12.3114 H       0      f0     0.0281
   2861 C            5.0679     2.0482    16.4850 C       0      f0    -0.0230
   2862 C            6.0940     0.7691    13.1432 C       0      f0    -0.0044
   2863 C            5.7997     0.9370    16.1073 C       0      f0    -0.0013
   2864 C            5.8540     2.0705    12.6771 C       0      f0     0.0011
   2865 C            5.9004    -1.7825   -16.9773 C       0      f0     0.0017
   2866 C            6.2993     0.2881    15.0856 C       0      f0    -0.0100
   2867 C            6.8357    -0.1731    13.7779 C       0      f0     0.0011
   2868 C            7.9457    -0.7645    13.1440 C       0      f0    -0.0291
   2869 H            8.1192    -0.6125    12.1694 H       0      f0     0.0371
   2870 H            8.7330     1.1442    16.4715 H       0      f0     0.0232
   2871 H            8.2428    -1.6886    15.5989 H       0      f0     0.0340
   2872 C            8.9672    -1.8307    13.5897 C      55     f55    -0.0044
   2873 C            9.2691     0.9120    15.5753 C      56     f56    -0.0158
   2874 C            9.1545    -1.5676    14.8016 C      55     f55     0.1504
   2875 C            9.7076     2.0706    14.7536 C      56     f56    -0.0895
   2876 C            9.9035    -0.3099    15.2607 C      56     f56    -0.0005
   2877 C           10.8678     1.6569    14.1538 C      56     f56     0.2645
   2878 C           11.0801     0.1434    14.4922 C      56     f56    -0.0237
   2879 O           11.5773     2.0557    12.9740 O       0      f0    -0.3741
   2880 H           12.3554     0.1287    16.9718 H       0      f0     0.0462
   2881 H           11.7299    -0.5775    14.1018 H       0      f0     0.0624
   2882 H           12.6845    -2.6168    15.9852 H       0      f0     0.0337
   2883 C           14.0329     1.0321    16.9915 C       0      f0     0.2353
   2884 O           14.1894     0.5075    15.6085 O       0      f0    -0.4693
   2885 H           13.7662    -1.5940    13.0135 H       0      f0     0.0262
   2886 H           14.1926    -1.9263    14.5190 H       0      f0     0.0380
   2887 C           14.4871    -0.7238    12.5664 C      51     f51    -0.0396
   2888 C           15.1221    -2.0125    15.2953 C       0      f0    -0.0117
   2889 C           15.3106    -0.7238    15.8008 C       0      f0     0.1931
   2890 C           15.8310     0.1773    12.6680 C      51     f51     0.2464
   2891 C          -16.1187     4.9384    13.4614 C       0      f0    -0.0072
   2892 O          -14.0051     6.4605    16.0078 O      74     f74    -0.4806
   2893 C          -13.2726     5.2795    16.7335 C      74     f74     0.1736
   2894 C          -13.0224     4.1668    16.6402 C       0      f0    -0.0697
   2895 C          -12.7322     2.7999    16.4906 C       0      f0     0.0308
   2896 C          -11.7225     2.6322    15.3494 C       0      f0    -0.0101
   2897 H          -11.4143     6.3504    11.7455 H       0      f0     0.0039
   2898 C          -10.6462     6.4198    15.4263 C       0      f0     0.0009
   2899 H          -10.7339     6.7524    13.2528 H       0      f0     0.0150
   2900 C          -10.3608     2.8329    14.9747 C       0      f0     0.0130
   2901 H          -10.6275     4.5605    14.8585 H       0      f0     0.0206
   2902 C           -9.9273     6.7130    14.0159 C       0      f0    -0.0163
   2903 C           -9.7335     3.9590    14.9506 C       0      f0    -0.0170
   2904 H          -11.3511     5.5811    16.0797 H       0      f0     0.0255
   2905 H           -9.9220     7.6682   -16.2632 H       0      f0     0.0168
   2906 C           -8.3242     6.9879    13.9928 C       0      f0    -0.0354
   2907 H           -7.8353     3.0472    15.9128 H       0      f0     0.0763
   2908 C           -8.3133     3.9515    15.4262 C       0      f0     0.0023
   2909 C           -7.8657     6.6985    12.3344 C       0      f0    -0.0510
   2910 C           -7.4698     4.7968    14.5350 C       0      f0    -0.0137
   2911 H           -7.1234     5.6942    14.9161 H       0      f0     0.0247
   2912 C           -6.0602     3.0753    15.9321 C       0      f0    -0.0722
   2913 C           -6.1036     4.6750    13.8333 C       0      f0    -0.0128
   2914 C           -6.0297     7.0108    16.4036 C       0      f0    -0.0113
   2915 C           -5.7524     3.3063    14.4558 C       0      f0     0.0080
   2916 C           -5.4280     5.9750    16.9826 C       0      f0    -0.0031
   2917 H           -5.1965     5.0133    14.0693 H       0      f0     0.0195
   2918 H           -1.6811     6.4339    13.7329 H       0      f0     0.0157
   2919 C           -1.2509     6.5242    12.7884 C       0      f0    -0.0134
   2920 H           -1.0735     3.3622    14.6253 H       0      f0     0.0159
   2921 C           -0.4042     3.1962    15.3570 C       0      f0    -0.0366
   2922 H           -1.2747     5.2209    16.7709 H       0      f0     0.0160
   2923 C            0.5107     2.7100    15.8402 C       0      f0     0.0094
   2924 H            2.2223     2.4506    12.3067 H       0      f0     0.0247
   2925 H            3.1622     7.5354    13.8121 H       0      f0     0.0197
   2926 H            3.7740     4.5047    12.1247 H       0      f0     0.0216
   2927 C            3.7559     6.7934    12.8304 C       0      f0    -0.0345
   2928 H            4.7062     6.7510    16.1577 H       0      f0     0.0167
   2929 C            4.5744     2.9770    12.7524 C       0      f0    -0.0120
   2930 H            4.5123     3.0991    13.8549 H       0      f0     0.0189
   2931 C            4.9283     5.7440    16.2863 C       0      f0    -0.0153
   2932 H            5.5623     6.1210    14.2576 H       0      f0     0.0223
   2933 C            5.3789     5.4804    14.9701 C       0      f0    -0.0205
   2934 H            5.6054     5.6268    12.0883 H       0      f0     0.0204
   2935 C            5.8318     4.1549    14.8117 C       0      f0    -0.0112
   2936 H            6.4112     7.1114    16.1080 H       0      f0     0.0169
   2937 C            6.7278     5.9979    12.5871 C       0      f0    -0.0145
   2938 C            6.8235     3.9112    13.4536 C       0      f0    -0.0038
   2939 C            7.2734     2.7432    12.6218 C       0      f0    -0.0037
   2940 C            7.8040     5.0370    13.0903 C       0      f0    -0.0240
   2941 H            7.2208     5.0983   -16.4386 H       0      f0     0.0280
   2942 C            8.6310     2.5733    12.0712 C       0      f0    -0.0170
   2943 H            8.9556     4.8461    13.1451 H       0      f0     0.0216
   2944 H            9.1573     2.8389    14.6406 H       0      f0     0.0423
   2945 H            9.6051     6.1373    15.1709 H       0      f0     0.0127
   2946 H            9.7272     3.5351    16.6791 H       0      f0     0.0194
   2947 C           10.0642     6.2859    16.1604 C       0      f0    -0.0139
   2948 C           11.3352     6.2832    16.1191 C       0      f0    -0.0476
   2949 H           11.8418     4.5651    13.5658 H       0      f0     0.0462
   2950 H           11.9801     6.4832    11.0752 H       0      f0     0.0092
   2951 H           12.0931     6.2679    15.3851 H       0      f0     0.0158
   2952 C           12.8481     4.6707    12.9984 C       0      f0     0.0068
   2953 C           13.9615     4.0365    12.7024 C       0      f0     0.0304
   2954 H           14.2961     6.6956    13.4002 H       0      f0     0.0170
   2955 H           14.8723     3.5040    12.6286 H       0      f0     0.0396
   2956 C           15.1526     5.7664   -16.7807 C       0      f0    -0.0228
   2957 C           15.7382     5.5698    15.8083 C       0      f0     0.0191
   2958 C          -16.4200     5.3031    14.5787 C       0      f0     0.0381
   2959 C          -16.0962    10.0791    14.7633 C       0      f0    -0.0169
   2960 C          -15.6349     7.4346    12.5722 C      35     f35     0.0058
   2961 C          -15.4279     9.0114    14.2136 C       0      f0     0.0151
   2962 H          -15.7042    10.9518    14.3145 H       0      f0     0.0191
   2963 C          -14.7910     7.8865    13.7264 C       0      f0    -0.0154
   2964 H          -14.9771    11.4376    12.9071 H       0      f0     0.0200
   2965 H          -13.9336     7.5806    14.2385 H       0      f0     0.0874
   2966 C          -13.8867    11.4158    13.2671 C       0      f0    -0.0240
   2967 C          -13.0126    10.1879    13.4415 C       0      f0    -0.0206
   2968 C          -13.0966    11.2824    16.3327 C       0      f0    -0.0023
   2969 H          -13.6998     9.4301    13.4079 H       0      f0     0.0202
   2970 C          -11.9636    10.5744    15.8388 C      57     f57     0.0207
   2971 C          -11.7723    10.3528    14.3070 C      57     f57     0.0099
   2972 C          -11.5058     9.3996    16.6371 C      57     f57    -0.0184
   2973 C          -11.0929     9.0716    14.1873 C      57     f57    -0.0097
   2974 C          -10.9251     8.5408    15.6423 C      57     f57     0.0179
   2975 C          -10.2972     7.5261    16.4561 C       0      f0    -0.0187
   2976 H           -8.0609     7.7281    14.5679 H       0      f0     0.0231
   2977 C           -7.4161     8.1571    12.3074 C       0      f0     0.2970
   2978 O           -6.5537     9.0512    12.0265 O       0      f0    -0.4505
   2979 C           -6.4588     8.4455    16.2404 C       0      f0    -0.0202
   2980 H           -6.3213    12.1902    14.7880 H       0      f0     0.0234
   2981 C           -5.4101     8.9233    15.1697 C       0      f0     0.0322
   2982 C           -4.4547    11.4392    16.3700 C       0      f0    -0.0446
   2983 C           -3.9943     8.3196    14.8995 C       0      f0    -0.0064
   2984 C           -3.7332     8.1105    16.2954 C       0      f0    -0.0236
   2985 H           -3.5479    11.0762    16.3405 H       0      f0     0.0263
   2986 H           -3.1111     8.4697    14.2560 H       0      f0     0.0408
   2987 C           -2.5582     8.3167    16.9273 C       0      f0    -0.0073
   2988 C           -0.3678    10.2914    16.7597 C      75     f75     0.0028
   2989 C           -0.4255     7.6666    12.7769 C       0      f0     0.0154
   2990 C           -0.2045     9.0036    16.5644 C      75     f75    -0.0235
   2991 C           -0.0859    11.6397    16.7427 C       0      f0    -0.0110
   2992 H            1.0602     9.2739    13.5402 H       0      f0     0.0185
   2993 C            0.3880     8.5055    12.5602 C       0      f0    -0.0032
   2994 H            0.4799     8.4207    16.0725 H       0      f0     0.0183
   2995 C            2.7311     9.5345    13.3294 C       0      f0    -0.0057
   2996 C            3.1874     9.2900    14.5913 C       0      f0    -0.0062
   2997 C            3.4439     8.9210    15.7428 C       0      f0    -0.0072
   2998 C            3.7462    11.6059    16.2550 C       0      f0     0.0153
   2999 C            4.0646     9.1226    16.9129 C       0      f0    -0.0167
   3000 C            4.8003     7.3950    12.2491 C       0      f0    -0.0056
   3001 C            6.0101    10.3632   -16.8029 C       0      f0     0.0066
   3002 C            6.5023     9.1403    16.6253 C       0      f0     0.0036
   3003 H            5.5908    11.7655    16.9823 H       0      f0     0.0230
   3004 C            7.1938     8.0326    16.3718 C       0      f0    -0.0147
   3005 H            8.1710    10.9389    14.7625 H       0      f0     0.0231
   3006 H            8.8173     7.5260    13.9397 H       0      f0     0.0188
   3007 H            8.7513     9.3802    13.2970 H       0      f0     0.0242
   3008 C            8.9531    11.5642    14.9948 C       0      f0    -0.0287
   3009 C            9.2415     8.3638    13.3636 C       0      f0    -0.0325
   3010 H           10.0383    11.7976    15.7303 H       0      f0     0.0323
   3011 C           10.5230     8.3525    12.7332 C       0      f0    -0.0182
   3012 H           11.4740     7.9927    13.0126 H       0      f0     0.0076
   3013 C           12.3860    10.1718    15.6791 C       0      f0    -0.0301
   3014 C           12.5915    11.2426    15.1415 C       0      f0     0.0102
   3015 H           12.5317     9.1881    15.4950 H       0      f0     0.0145
   3016 H           13.4295     9.1823    12.7228 H       0      f0     0.0086
   3017 H           14.5724     8.0430    15.4165 H       0      f0     0.0163
   3018 C           14.4711     8.7014    12.7175 C      35     f35    -0.0194
   3019 C           14.5315     7.1220    12.5749 C      35     f35    -0.0314
   3020 C           14.8283     8.0843    16.5102 C       0      f0    -0.0127
   3021 C           15.9856     9.8715    16.2427 C       6      f6     0.0031
   3022 H          -15.7568    12.3406    16.8997 H       0      f0     0.0205
   3023 C          -16.0842    16.0967    16.4385 C       0      f0    -0.0175
   3024 H          -15.7006    15.1287   -16.9918 H       0      f0     0.0146
   3025 H          -15.0766    13.8135    15.1335 H       0      f0     0.0182
   3026 H          -14.3243   -16.7161    14.5807 H       0      f0     0.0266
   3027 C          -13.8876    13.8630    15.2419 C       0      f0    -0.0181
   3028 C          -13.3128    14.9763    14.8524 C       0      f0     0.0344
   3029 C          -13.1354    13.8517    12.7288 C       0      f0     0.0011
   3030 C          -13.4662    16.2783    14.3016 C       0      f0    -0.0505
   3031 C          -13.3424    12.3266    15.4094 C       0      f0     0.0272
   3032 C          -13.0020    12.5805    13.4466 C       0      f0     0.0144
   3033 C          -11.5707    12.1039    12.7497 C       0      f0    -0.0173
   3034 O          -10.6018    13.5497    16.1938 O      37     f37    -0.4561
   3035 C          -10.6004    12.8704    13.3216 C       0      f0     0.0147
   3036 C           -9.6548    13.6691    14.0043 C       0      f0     0.0576
   3037 H           -9.1322    14.4575    13.5375 H       0      f0     0.0127
   3038 C           -9.1245    13.0707    16.3080 C      37     f37     0.2180
   3039 C           -8.6325    13.0404    14.9366 C       0      f0    -0.0270
   3040 H           -7.8462    12.2017    14.7075 H       0      f0     0.0346
   3041 C           -6.7667    16.0052    15.6805 C       0      f0    -0.0396
   3042 C           -6.7951    14.9778    16.6061 C       0      f0     0.2114
   3043 C           -6.4858    16.0443    14.2731 C       0      f0    -0.0045
   3044 O           -5.8307    13.7364    16.2328 O       0      f0    -0.4987
   3045 H           -5.8791    15.1816    14.1477 H       0      f0     0.0461
   3046 C           -5.2688    12.4879    15.3930 C       0      f0     0.1925
   3047 C           -5.3917    13.8544    12.3253 C       0      f0     0.0043
   3048 C           -4.3159    13.0444    14.5238 C       0      f0    -0.0101
   3049 H           -3.6276    12.3580    13.0181 H       0      f0     0.0344
   3050 C           -4.4315    13.2581    13.1593 C       0      f0    -0.0139
   3051 C           -1.4651    14.6483    12.9161 C      16     f16    -0.0075
   3052 C           -1.0716    15.5297    13.9362 C      16     f16     0.0170
   3053 C           -1.0666    13.0869    12.9763 C      16     f16     0.0111
   3054 C           -0.5138    14.1399    14.8330 C      16     f16     0.0389
   3055 C           -0.6615    12.6952    14.3265 C      16     f16    -0.0110
   3056 C           -0.0314    13.8256    16.0239 C       0      f0     0.0320
   3057 H           -0.2955    11.4818    14.4258 H       0      f0     0.0276
   3058 O            2.3666    14.7399    14.4113 O      15     f15    -0.4792
   3059 H            3.2022    14.1166    12.7222 H       0      f0     0.0866
   3060 C            3.1954    16.0861    14.1660 C      15     f15     0.2011
   3061 C            3.4545    14.2281    15.3983 C      15     f15     0.2206
   3062 C            3.7117    12.7240    15.9230 C       0      f0    -0.0378
   3063 C            4.0836    13.6395    12.1447 C       0      f0    -0.0310
   3064 C            4.5017    16.0098    14.7339 C      15     f15    -0.0223
   3065 C            4.5563    14.8175    15.5961 C      15     f15    -0.0479
   3066 C            5.4567    14.3539    12.2556 C       0      f0     0.0144
   3067 C            6.0181    14.1724    16.1221 C       0      f0     0.0033
   3068 C            6.4154    13.9092    13.4370 C       0      f0    -0.0165
   3069 H            7.0651    13.0417    13.4232 H       0      f0     0.0184
   3070 H            7.1939    14.1927    15.8135 H       0      f0     0.0345
   3071 H            7.3269    15.8316    14.7502 H       0      f0     0.0266
   3072 C            7.3604    14.8042    14.1738 C       0      f0    -0.0189
   3073 C            8.7394    14.2973    14.4719 C       0      f0    -0.0002
   3074 C            9.0717    12.8728    14.6309 C       0      f0    -0.0027
   3075 C            9.8503    15.0255    14.0392 C       0      f0    -0.0058
   3076 H           11.1651    13.4018   -16.8673 H       0      f0     0.0506
   3077 C           11.1774    15.5112    14.0150 C       0      f0    -0.0054
   3078 H           11.9964    13.1601    13.4074 H       0      f0     0.0148
   3079 H           11.8837   -16.2073   -16.8937 H       0      f0     0.0204
   3080 C           12.5223    15.9860    13.9918 C       0      f0    -0.0074
   3081 C           12.7327    12.2258    14.1781 C       0      f0    -0.0209
   3082 C           12.9272    16.2252    12.6502 C      23     f23    -0.0089
   3083 C           13.5038    14.9142    14.2445 C       0      f0    -0.0042
   3084 C           13.6905    13.3114    14.0503 C       0      f0     0.0012
   3085 C           14.7677    15.2653    15.0619 C       0      f0    -0.0021
   3086 C           14.9748    12.4436    13.9391 C       0      f0    -0.0091
   3087 H           15.6692    11.6982    13.1588 H       0      f0     0.0287
   3088 C           15.7559    12.2509    15.0853 C       0      f0    -0.0050
   3089 C           16.1176    12.2388    16.6075 C       0      f0    -0.0142
   3090 C           16.0298    15.9342    15.2182 C       0      f0    -0.0133
   3091 B           16.4209   -16.7852    16.9996 B     116     BOX     0.0000
   3092 B          -16.4209   -16.7852    16.9996 B     116     BOX     0.0000
   3093 B          -16.4209    16.7852    16.9996 B     116     BOX     0.0000
   3094 B           16.4209    16.7852    16.9996 B     116     BOX     0.0000
   3095 B           16.4209   -16.7852   -16.9996 B     116     BOX     0.0000
   3096 B          -16.4209   -16.7852   -16.9996 B     116     BOX     0.0000
   3097 B          -16.4209    16.7852   -16.9996 B     116     BOX     0.0000
   3098 B           16.4209    16.7852   -16.9996 B     116     BOX     0.0000
@<TRIPOS>BOND
     1     14     15      1
     2     14     17      1
     3     15     17      1
     4     15    474      1
     5     17     18      1
     6     25    423      1
     7     26   2668      1
     8     27     28      1
     9     42     43      1
    10     43     44      1
    11     43     45      1
    12     44     45      1
    13     44    118      1
    14     45    560      1
    15     55     58      1
    16     56     59      1
    17     58     59      1
    18     59     64      1
    19    118    119      1
    20    119    121      1
    21    120    122      1
    22    121    123      1
    23    122    123      1
    24    122    125      1
    25    123    125      1
    26    132    186      1
    27    133    138      1
    28    133    577      1
    29    134    135      1
    30    136    186      1
    31    138    140      1
    32    138    141      1
    33    139    140      1
    34    140    142      1
    35    141    143      1
    36    141    579      1
    37    142    143      1
    38    143    582      1
    39    161    162      1
    40    162    554      1
    41    162    600      1
    42    169    172      1
    43    169    173      1
    44    169   2865      1
    45    171    173      1
    46    172    173      1
    47    183    254      1
    48    185    188      1
    49    185    189      1
    50    186    189      1
    51    188    193      1
    52    188    255      1
    53    189    192      1
    54    192    195      1
    55    192    196      1
    56    193    195      1
    57    193    685      1
    58    195    198      1
    59    201    689      1
    60    225    227      1
    61    227    229      1
    62    227    649      1
    63    229    231      1
    64    229    649      1
    65    250    252      1
    66    252    253      1
    67    252    318      1
    68    253    676      1
    69    254    676      1
    70    255    256      1
    71    258    259      1
    72    296    298      1
    73    297    298      1
    74    297    299      1
    75    297    717      1
    76    298    300      1
    77    299    301      1
    78    299    367      1
    79    299    719      1
    80    300    302      1
    81    300    303      1
    82    301    303      1
    83    301    774      1
    84    303    374      1
    85    313    782      1
    86    316    318      1
    87    339    748      1
    88    351    355      1
    89    354    755      1
    90    355    357      1
    91    355    435      1
    92    356    357      1
    93    357    439      1
    94    364    366      1
    95    366    368      1
    96    366    444      1
    97    368    369      1
    98    368    370      1
    99    370    373      1
   100    370    448      1
   101    373    376      1
   102    375    376      1
   103    375    378      1
   104    375    450      1
   105    376    379      1
   106    378    381      1
   107    379    381      1
   108    379    382      1
   109    383    385      1
   110    383    780      1
   111    383    781      1
   112    385    386      1
   113    385    387      1
   114    386    388      1
   115    387    389      1
   116    387    782      1
   117    388    390      1
   118    388    393      1
   119    389    390      1
   120    389    392      1
   121    390    394      1
   122    391   3021      1
   123    391   3089      1
   124    406    410      1
   125    410    411      1
   126    410    413      1
   127    413    415      1
   128    418    421      1
   129    421    425      1
   130    421    810      1
   131    425    426      1
   132    425    816      1
   133    435    437      1
   134    437    438      1
   135    437    439      1
   136    437    440      1
   137    439    441      1
   138    443    444      1
   139    444    447      1
   140    446    447      1
   141    447    448      1
   142    448    449      1
   143    448    450      1
   144    451    847      1
   145    465    467      1
   146    467    469      1
   147    467    470      1
   148    468    469      1
   149    469    470      1
   150    470    471      1
   151    481    484      1
   152    483    484      1
   153    483    870      1
   154    483    872      1
   155    484    486      1
   156    485    486      1
   157    491    493      1
   158    491    494      1
   159    493    494      1
   160    494    495      1
   161    499    502      1
   162    502    504      1
   163    502    506      1
   164    504    506      1
   165    506    509      1
   166    512    846      1
   167    512    847      1
   168    524    525      1
   169    524    577      1
   170    524    579      1
   171    529    579      1
   172    530    581      1
   173    549    551      1
   174    549    596      1
   175    551    554      1
   176    554    555      1
   177    579    581      1
   178    580    581      1
   179    581    583      1
   180    582    583      1
   181    582    584      1
   182    585    638      1
   183    595    596      1
   184    596    598      1
   185    598    599      1
   186    598    600      1
   187    606    608      1
   188    608    611      1
   189    608    942      1
   190    608   1004      1
   191    631    632      1
   192    631    692      1
   193    631   1030      1
   194    633    635      1
   195    634    636      1
   196    635    636      1
   197    635    637      1
   198    636    638      1
   199    637    639      1
   200    637    640      1
   201    638    640      1
   202    640    642      1
   203    654    658      1
   204    656    659      1
   205    658    659      1
   206    658    660      1
   207    659    660      1
   208    660    661      1
   209    677    678      1
   210    678    680      1
   211    678    681      1
   212    679    680      1
   213    679   1097      1
   214    681   1097      1
   215    681   1158      1
   216    682    683      1
   217    683    685      1
   218    683    687      1
   219    684    686      1
   220    684    687      1
   221    685    689      1
   222    686    688      1
   223    686   1102      1
   224    687    691      1
   225    688    690      1
   226    688   1027      1
   227    689    691      1
   228    690    691      1
   229    690    692      1
   230    692    694      1
   231    697   1111      1
   232    712    753      1
   233    738    789      1
   234    746    747      1
   235    747    748      1
   236    747    749      1
   237    748    749      1
   238    751    752      1
   239    752    753      1
   240    752    755      1
   241    753    754      1
   242    754    756      1
   243    754   1193      1
   244    755    757      1
   245    756    757      1
   246    756    761      1
   247    757    759      1
   248    760    763      1
   249    763    765      1
   250    763    833      1
   251    765    766      1
   252    765    837      1
   253    768    837      1
   254    778    780      1
   255    780    782      1
   256    782    785      1
   257    783    786      1
   258    784    785      1
   259    784    786      1
   260    784    789      1
   261    785    787      1
   262    785    789      1
   263    786    789      1
   264    800    803      1
   265    803    806      1
   266    803    807      1
   267    806    807      1
   268    806    809      1
   269    807    808      1
   270    808    810      1
   271    810    813      1
   272    813    814      1
   273    813    816      1
   274    816    822      1
   275    817    818      1
   276    817   1238      1
   277    818    821      1
   278    832    833      1
   279    833    835      1
   280    835    837      1
   281    835    838      1
   282    846    847      1
   283    870    872      1
   284    871    872      1
   285    872    874      1
   286    924    925      1
   287    924    926      1
   288    925    926      1
   289    925   1378      1
   290    926    927      1
   291    929   1388      1
   292    934   1391      1
   293    940    942      1
   294    942   1004      1
   295    978    980      1
   296    979    981      1
   297    980    981      1
   298    980   1442      1
   299    981    982      1
   300    982    983      1
   301    982    984      1
   302    984    985      1
   303    984    986      1
   304    984   1446      1
   305    989    994      1
   306    992    995      1
   307    994    995      1
   308    994    997      1
   309    995   1060      1
   310    997    998      1
   311    997   1064      1
   312   1004   1008      1
   313   1026   1027      1
   314   1027   1030      1
   315   1030   1032      1
   316   1033   1035      1
   317   1035   1498      1
   318   1035   1503      1
   319   1041   1435      1
   320   1060   1061      1
   321   1060   1524      1
   322   1061   1064      1
   323   1061   1065      1
   324   1070   1071      1
   325   1071   1076      1
   326   1071   1146      1
   327   1073   1538      1
   328   1076   1146      1
   329   1083   1086      1
   330   1086   1088      1
   331   1086   1089      1
   332   1086   1551      1
   333   1087   1088      1
   334   1088   1089      1
   335   1088   1090      1
   336   1089   1091      1
   337   1095   1097      1
   338   1108   1110      1
   339   1109   1112      1
   340   1110   1111      1
   341   1110   1112      1
   342   1110   1114      1
   343   1111   1112      1
   344   1112   1113      1
   345   1125   1126      1
   346   1125   1128      1
   347   1125   1575      1
   348   1126   1186      1
   349   1126   1635      1
   350   1128   1129      1
   351   1128   1130      1
   352   1130   1132      1
   353   1130   1186      1
   354   1143   1536      1
   355   1146   1147      1
   356   1148   1662      1
   357   1185   1186      1
   358   1200   1202      1
   359   1202   1203      1
   360   1202   1662      1
   361   1203   1206      1
   362   1205   1206      1
   363   1206   1207      1
   364   1207   1668      1
   365   1207   1673      1
   366   1259   1724      1
   367   1273   1275      1
   368   1275   1276      1
   369   1275   1278      1
   370   1276   1278      1
   371   1278   1280      1
   372   1297   1756      1
   373   1304   1763      1
   374   1309   1765      1
   375   1316   1317      1
   376   1317   1321      1
   377   1331   1332      1
   378   1332   1334      1
   379   1332   1335      1
   380   1333   1334      1
   381   1334   1336      1
   382   1335   1337      1
   383   1335   1408      1
   384   1335   1875      1
   385   1336   1337      1
   386   1336   1338      1
   387   1337   1802      1
   388   1361   1438      1
   389   1363   1439      1
   390   1383   1385      1
   391   1385   1386      1
   392   1385   1387      1
   393   1386   1458      1
   394   1386   1860      1
   395   1387   1388      1
   396   1387   1390      1
   397   1388   1391      1
   398   1389   1390      1
   399   1389   1393      1
   400   1389   1861      1
   401   1389   1862      1
   402   1390   1392      1
   403   1391   1392      1
   404   1392   1395      1
   405   1393   1394      1
   406   1394   1395      1
   407   1395   1396      1
   408   1397   1402      1
   409   1402   1465      1
   410   1402   1468      1
   411   1402   1877      1
   412   1410   1414      1
   413   1410   1416      1
   414   1414   1416      1
   415   1414   1889      1
   416   1416   1419      1
   417   1427   1431      1
   418   1428   1430      1
   419   1429   1431      1
   420   1430   1431      1
   421   1430   1433      1
   422   1431   1432      1
   423   1432   1436      1
   424   1432   1905      1
   425   1433   1437      1
   426   1434   1435      1
   427   1434   1499      1
   428   1435   1499      1
   429   1436   1437      1
   430   1436   1440      1
   431   1437   1439      1
   432   1438   1439      1
   433   1438   1442      1
   434   1439   1443      1
   435   1440   1441      1
   436   1440   1444      1
   437   1442   1446      1
   438   1443   1444      1
   439   1443   1447      1
   440   1444   1920      1
   441   1446   1447      1
   442   1447   1449      1
   443   1463   1465      1
   444   1465   1467      1
   445   1465   1940      1
   446   1496   1498      1
   447   1496   1499      1
   448   1498   1503      1
   449   1501   1502      1
   450   1502   1569      1
   451   1502   2012      1
   452   1503   1504      1
   453   1508   1513      1
   454   1511   1513      1
   455   1513   1514      1
   456   1513   1972      1
   457   1514   1972      1
   458   1526   1530      1
   459   1529   1532      1
   460   1530   1533      1
   461   1530   1535      1
   462   1531   1533      1
   463   1532   1534      1
   464   1532   1536      1
   465   1532   1592      1
   466   1533   1535      1
   467   1536   1537      1
   468   1536   1592      1
   469   1537   1538      1
   470   1537   1539      1
   471   1538   1541      1
   472   1539   1542      1
   473   1540   1542      1
   474   1541   1542      1
   475   1541   1543      1
   476   1544   1989      1
   477   1554   1604      1
   478   1568   1569      1
   479   1569   2013      1
   480   1580   1581      1
   481   1581   1643      1
   482   1581   2090      1
   483   1583   1643      1
   484   1592   1593      1
   485   1601   1602      1
   486   1602   1603      1
   487   1602   1604      1
   488   1603   1605      1
   489   1604   1606      1
   490   1605   1607      1
   491   1605   2057      1
   492   1606   1607      1
   493   1606   1608      1
   494   1607   1609      1
   495   1629   1694      1
   496   1638   1642      1
   497   1642   1643      1
   498   1642   1645      1
   499   1645   1647      1
   500   1645   2093      1
   501   1662   1668      1
   502   1664   1668      1
   503   1668   1672      1
   504   1681   2121      1
   505   1690   1691      1
   506   1691   1693      1
   507   1691   2130      1
   508   1693   1694      1
   509   1693   1695      1
   510   1694   2131      1
   511   1702   1703      1
   512   1720   1724      1
   513   1720   1726      1
   514   1724   1728      1
   515   1725   1726      1
   516   1726   1729      1
   517   1728   1729      1
   518   1728   1731      1
   519   1729   1733      1
   520   1749   1752      1
   521   1751   1753      1
   522   1752   1753      1
   523   1752   1755      1
   524   1753   1756      1
   525   1754   1755      1
   526   1755   1757      1
   527   1756   1757      1
   528   1757   1758      1
   529   1758   1761      1
   530   1760   2189      1
   531   1761   1763      1
   532   1761   1764      1
   533   1762   1764      1
   534   1763   1765      1
   535   1764   1766      1
   536   1765   1766      1
   537   1781   1782      1
   538   1782   1784      1
   539   1784   2216      1
   540   1810   2241      1
   541   1860   1862      1
   542   1860   1932      1
   543   1862   1864      1
   544   1871   1873      1
   545   1872   1874      1
   546   1873   1874      1
   547   1873   1941      1
   548   1874   1877      1
   549   1877   1878      1
   550   1893   2306      1
   551   1894   1895      1
   552   1895   1898      1
   553   1898   2309      1
   554   1898   2313      1
   555   1921   1972      1
   556   1939   1940      1
   557   1940   1941      1
   558   1941   1942      1
   559   1947   1952      1
   560   1950   1952      1
   561   1950   2369      1
   562   1950   2372      1
   563   1952   1954      1
   564   1953   1954      1
   565   1954   1955      1
   566   1954   1957      1
   567   1957   2377      1
   568   1958   1960      1
   569   1958   1961      1
   570   1959   1960      1
   571   1960   1961      1
   572   1964   2403      1
   573   1970   1972      1
   574   1984   1985      1
   575   1985   1987      1
   576   1985   1988      1
   577   1986   1988      1
   578   1987   1989      1
   579   1987   2045      1
   580   1988   1990      1
   581   1989   1991      1
   582   1990   1991      1
   583   1990   1992      1
   584   1991   1993      1
   585   2000   2002      1
   586   2000   2441      1
   587   2000   2443      1
   588   2012   2013      1
   589   2013   2017      1
   590   2031   2032      1
   591   2032   2034      1
   592   2032   2478      1
   593   2034   2036      1
   594   2034   2037      1
   595   2035   2036      1
   596   2036   2039      1
   597   2037   2040      1
   598   2037   2480      1
   599   2038   2039      1
   600   2039   2041      1
   601   2040   2041      1
   602   2040   2042      1
   603   2041   2043      1
   604   2062   2064      1
   605   2062   2119      1
   606   2070   2071      1
   607   2071   2072      1
   608   2071   2075      1
   609   2072   2074      1
   610   2073   2074      1
   611   2074   2077      1
   612   2075   2076      1
   613   2075   2078      1
   614   2077   2081      1
   615   2078   2079      1
   616   2078   2081      1
   617   2081   2083      1
   618   2086   2090      1
   619   2090   2093      1
   620   2092   2093      1
   621   2101   2102      1
   622   2101   2104      1
   623   2102   2103      1
   624   2102   2104      1
   625   2104   2105      1
   626   2105   2106      1
   627   2105   2108      1
   628   2106   2108      1
   629   2106   2552      1
   630   2106   2553      1
   631   2107   2622      1
   632   2108   2110      1
   633   2116   2560      1
   634   2129   2130      1
   635   2130   2131      1
   636   2134   2135      1
   637   2134   2590      1
   638   2135   2590      1
   639   2136   2137      1
   640   2136   2138      1
   641   2137   2138      1
   642   2140   2141      1
   643   2141   2145      1
   644   2141   2605      1
   645   2145   2147      1
   646   2147   2148      1
   647   2148   2610      1
   648   2158   2623      1
   649   2162   2634      1
   650   2166   2168      1
   651   2167   2169      1
   652   2168   2170      1
   653   2187   2192      1
   654   2188   2189      1
   655   2188   2191      1
   656   2189   2192      1
   657   2190   2191      1
   658   2191   2192      1
   659   2191   2193      1
   660   2204   2675      1
   661   2206   2208      1
   662   2208   2209      1
   663   2208   2210      1
   664   2209   2212      1
   665   2209   2273      1
   666   2210   2211      1
   667   2210   2213      1
   668   2212   2213      1
   669   2212   2279      1
   670   2213   2214      1
   671   2217   2688      1
   672   2222   2223      1
   673   2223   2224      1
   674   2223   2225      1
   675   2236   2237      1
   676   2241   2244      1
   677   2241   2304      1
   678   2241   2306      1
   679   2243   2246      1
   680   2243   2710      1
   681   2245   2246      1
   682   2247   2248      1
   683   2247   2249      1
   684   2247   2308      1
   685   2248   2312      1
   686   2249   2250      1
   687   2249   2252      1
   688   2250   2253      1
   689   2252   2254      1
   690   2252   2312      1
   691   2253   2255      1
   692   2253   2722      1
   693   2254   2722      1
   694   2254   2727      1
   695   2256   2257      1
   696   2257   2258      1
   697   2257   2316      1
   698   2258   2260      1
   699   2259   2260      1
   700   2260   2318      1
   701   2260   2727      1
   702   2262   2266      1
   703   2263   2265      1
   704   2264   2265      1
   705   2265   2266      1
   706   2265   2268      1
   707   2266   2268      1
   708   2298   2773      1
   709   2302   2304      1
   710   2304   2306      1
   711   2305   2307      1
   712   2305   2378      1
   713   2305   2832      1
   714   2309   2310      1
   715   2315   2316      1
   716   2316   2317      1
   717   2317   2318      1
   718   2317   2320      1
   719   2318   2321      1
   720   2319   2320      1
   721   2320   2322      1
   722   2321   2322      1
   723   2321   2790      1
   724   2322   2324      1
   725   2361   2819      1
   726   2370   2372      1
   727   2371   2441      1
   728   2372   2377      1
   729   2373   2375      1
   730   2373   2773      1
   731   2373   2827      1
   732   2374   2378      1
   733   2375   2376      1
   734   2375   2378      1
   735   2375   2832      1
   736   2377   2381      1
   737   2378   2379      1
   738   2380   2381      1
   739   2401   2402      1
   740   2401   2403      1
   741   2402   2404      1
   742   2402   2841      1
   743   2403   2405      1
   744   2404   2405      1
   745   2404   2406      1
   746   2405   2407      1
   747   2436   2494      1
   748   2436   2497      1
   749   2439   2440      1
   750   2440   2442      1
   751   2440   2887      1
   752   2441   2443      1
   753   2442   2444      1
   754   2444   2890      1
   755   2453   2456      1
   756   2456   2457      1
   757   2456   2458      1
   758   2456   2897      1
   759   2457   2458      1
   760   2458   2459      1
   761   2468   2472      1
   762   2468   2532      1
   763   2468   2533      1
   764   2475   2478      1
   765   2478   2480      1
   766   2480   2481      1
   767   2494   2497      1
   768   2494   2942      1
   769   2495   2496      1
   770   2496   2498      1
   771   2496   2555      1
   772   2497   2498      1
   773   2498   2499      1
   774   2499   2500      1
   775   2499   2557      1
   776   2505   3019      1
   777   2507   2510      1
   778   2507   2960      1
   779   2527   2529      1
   780   2528   2530      1
   781   2529   2530      1
   782   2529   2593      1
   783   2530   2531      1
   784   2531   2534      1
   785   2531   2535      1
   786   2532   2533      1
   787   2535   2599      1
   788   2535   2601      1
   789   2554   2622      1
   790   2554   2626      1
   791   2555   2557      1
   792   2555   2558      1
   793   2557   2560      1
   794   2558   2559      1
   795   2558   2561      1
   796   2560   2562      1
   797   2561   2562      1
   798   2561   2563      1
   799   2562   2564      1
   800   2564   2565      1
   801   2565   2567      1
   802   2565   2634      1
   803   2567   2570      1
   804   2567   2640      1
   805   2568   2569      1
   806   2569   3018      1
   807   2588   2590      1
   808   2589   2593      1
   809   2593   2597      1
   810   2594   2597      1
   811   2597   2599      1
   812   2600   3051      1
   813   2603   3053      1
   814   2605   2608      1
   815   2607   2608      1
   816   2608   2610      1
   817   2610   2612      1
   818   2616   2619      1
   819   2622   2623      1
   820   2623   2625      1
   821   2625   2626      1
   822   2625   2631      1
   823   2626   2627      1
   824   2628   2630      1
   825   2630   2632      1
   826   2631   2632      1
   827   2632   2635      1
   828   2634   2636      1
   829   2635   2637      1
   830   2635   2638      1
   831   2636   2637      1
   832   2636   2640      1
   833   2637   2643      1
   834   2638   2639      1
   835   2638   2644      1
   836   2639   3082      1
   837   2640   2642      1
   838   2643   2644      1
   839   2643   2645      1
   840   2666   2669      1
   841   2668   2669      1
   842   2668   2673      1
   843   2669   2672      1
   844   2672   2677      1
   845   2672   2744      1
   846   2673   2674      1
   847   2673   2678      1
   848   2674   2676      1
   849   2675   2676      1
   850   2677   2678      1
   851   2677   2679      1
   852   2678   2680      1
   853   2679   2681      1
   854   2679   2752      1
   855   2680   2681      1
   856   2681   2683      1
   857   2682   2685      1
   858   2683   2686      1
   859   2683   2687      1
   860   2685   2688      1
   861   2686   2689      1
   862   2687   2690      1
   863   2688   2691      1
   864   2689   2690      1
   865   2689   2759      1
   866   2690   2693      1
   867   2691   2694      1
   868   2691   2695      1
   869   2692   2694      1
   870   2694   2696      1
   871   2707   2708      1
   872   2714   2715      1
   873   2714   2716      1
   874   2715   2718      1
   875   2715   2833      1
   876   2722   2724      1
   877   2724   2726      1
   878   2724   2728      1
   879   2727   2728      1
   880   2727   2784      1
   881   2728   2732      1
   882   2748   2804      1
   883   2763   2766      1
   884   2766   2767      1
   885   2772   2773      1
   886   2773   2827      1
   887   2781   2836      1
   888   2782   2783      1
   889   2782   2836      1
   890   2804   2805      1
   891   2804   2808      1
   892   2805   2809      1
   893   2806   2808      1
   894   2807   2809      1
   895   2808   2809      1
   896   2809   2810      1
   897   2819   2821      1
   898   2819   2872      1
   899   2820   2821      1
   900   2820   2874      1
   901   2821   2822      1
   902   2822   2823      1
   903   2823   2824      1
   904   2823   2825      1
   905   2824   2825      1
   906   2826   2827      1
   907   2841   2842      1
   908   2842   2843      1
   909   2842   2844      1
   910   2843   2844      1
   911   2844   2845      1
   912   2868   2872      1
   913   2870   2873      1
   914   2871   2874      1
   915   2872   2874      1
   916   2873   2875      1
   917   2873   2876      1
   918   2874   2876      1
   919   2875   2877      1
   920   2875   2944      1
   921   2876   2878      1
   922   2877   2878      1
   923   2877   2879      1
   924   2878   2881      1
   925   2885   2887      1
   926   2887   2890      1
   927   2892   2893      1
   928   2893   2894      1
   929   2954   3019      1
   930   2960   2963      1
   931   2967   2971      1
   932   2968   2970      1
   933   2970   2971      1
   934   2970   2972      1
   935   2971   2973      1
   936   2972   2974      1
   937   2973   2974      1
   938   2974   2975      1
   939   2988   2990      1
   940   2988   2991      1
   941   2990   2994      1
   942   3016   3018      1
   943   3018   3019      1
   944   3034   3038      1
   945   3038   3039      1
   946   3051   3052      1
   947   3051   3053      1
   948   3052   3054      1
   949   3053   3055      1
   950   3054   3055      1
   951   3054   3056      1
   952   3055   3057      1
   953   3058   3060      1
   954   3058   3061      1
   955   3060   3064      1
   956   3061   3062      1
   957   3061   3065      1
   958   3064   3065      1
   959   3065   3067      1
   960   3080   3082      1
   961   3091   3092     du
   962   3092   3093     du
   963   3093   3094     du
   964   3094   3091     du
   965   3095   3096     du
   966   3096   3097     du
   967   3097   3098     du
   968   3098   3095     du
   969   3094   3098     du
   970   3095   3091     du
   971   3093   3097     du
   972   3096   3092     du
