@<TRIPOS>MOLECULE
LAMMPS data file via write_data, version 29 Oct 2020, timestep = 1000 > lmp2SYBYLmol2 v3.1 / 26 May 2023 w/remove_PBC_bonds=True
  1933 2679    0    0    0
SMALL
NO_CHARGES
****
Energy = 0

@<TRIPOS>ATOM
      1 C          -13.7672   -11.4048   -11.5831 C       5      r5     0.0020
      2 C          -13.0808   -12.3669    -8.7182 C       0      r0     0.0337
      3 C          -12.5202   -10.6536   -11.3648 C       5      r5    -0.0077
      4 C          -11.9607   -12.3182    -9.5086 C       0      r0     0.0142
      5 C          -11.7385    -9.2792    -8.5811 C       6      r6    -0.0156
      6 C          -11.0779   -10.9685   -11.1889 C       6      r6    -0.0036
      7 C          -10.8623   -12.1278   -10.2762 C       6      r6     0.0072
      8 C          -10.4022    -8.8324    -8.7254 C       6      r6     0.0139
      9 C          -10.0175   -10.3425   -11.9597 C       6      r6    -0.0024
     10 C           -9.3060    -9.6850    -8.2419 C       6      r6    -0.0573
     11 C           -8.9751   -12.5829   -11.8797 C       6      r6     0.0094
     12 C           -8.8273   -11.0965   -12.0409 C       6      r6     0.0135
     13 C           -8.1199    -9.8797    -8.9572 C       6      r6     0.2356
     14 O           -7.5043   -11.2729    -8.8484 O       5      r5    -0.5118
     15 C           -7.6422    -8.7846    -9.6894 C       6      r6    -0.0457
     16 C           -6.2112   -12.3416   -12.5738 C       7      r7     0.0056
     17 C           -6.2429    -8.7802   -10.3202 C       6      r6     0.0256
     18 C           -5.4276    -9.7994   -10.8576 C       0      r0     0.0224
     19 C           -5.0080   -12.0505   -11.7665 C       5      r5     0.0128
     20 C           -4.5431   -10.7024   -11.3347 C       5      r5     0.0018
     21 C           -4.2620   -12.8122    -9.0756 C       5      r5    -0.0108
     22 C           -3.7935   -12.7815   -12.0690 C       6      r6    -0.0013
     23 C           -3.7324   -11.5524    -9.0089 C       7      r7     0.0121
     24 C           -2.9503   -10.6205   -11.1356 C       6      r6     0.0004
     25 C           -2.7427   -11.7770   -12.3607 C       6      r6     0.0011
     26 C           -2.7201   -11.2637    -9.8542 C       7      r7    -0.0010
     27 C           -2.3194    -9.4116   -11.5979 C       6      r6    -0.0013
     28 C           -1.4506   -12.5219   -12.3207 C       6      r6    -0.0010
     29 C           -1.4173   -11.6765    -9.3975 C       7      r7    -0.0006
     30 C           -0.5337   -10.7789    -8.6783 C       6      r6    -0.0009
     31 C            0.5399   -10.6327    12.6014 C       6      r6    -0.0011
     32 C            0.9746   -10.9842    -8.5986 C       6      r6    -0.0016
     33 C            1.1018    -9.2282   -10.6140 C       5      r5    -0.0001
     34 C            1.2475   -10.4689   -11.4325 C       6      r6    -0.0012
     35 C            1.5329   -11.8444   -10.9010 C       6      r6    -0.0012
     36 C            1.6028   -11.9870    -9.4776 C       7      r7    -0.0007
     37 C            1.9033   -13.0428   -11.6559 C       6      r6     0.0005
     38 C            3.5905    -9.4419   -11.9832 C       6      r6    -0.0058
     39 C            3.9158   -12.6235    -9.2311 C       7      r7    -0.0000
     40 C            4.1727   -12.6145   -10.6366 C       5      r5     0.0000
     41 C            4.4234   -10.2153   -11.0792 C       6      r6    -0.0014
     42 C            5.1316    -9.7563    -9.8738 C       7      r7    -0.0003
     43 C            5.1167   -11.5678   -11.3408 C       6      r6     0.0002
     44 C            5.1428   -10.5650    -8.6555 C       7      r7    -0.0015
     45 C            6.6383   -11.5673   -11.0910 C       6      r6    -0.0020
     46 C            7.0381   -12.5161   -12.1153 C       6      r6    -0.0004
     47 C            7.3938    -9.1035   -10.5744 C       6      r6     0.0002
     48 C            7.6467   -10.6363   -10.6976 C       6      r6     0.0013
     49 C            9.0581   -10.9918   -10.8393 C       6      r6    -0.0178
     50 C            9.5294   -12.2034   -11.7900 C       6      r6     0.2036
     51 C           10.0763   -10.1976   -10.3070 C       6      r6     0.0186
     52 O           10.7348   -13.0474   -11.0735 O       0      r0    -0.4869
     53 C           11.1188   -10.8158    -9.3395 C       0      r0     0.0187
     54 C           12.3131   -11.5394    -9.7967 C       0      r0     0.0499
     55 C           12.6715   -12.8809    -9.7357 C       7      r7    -0.0296
     56 C           12.7770    -8.9779   -12.1074 C       6      r6     0.0028
     57 C           12.9853    -9.3650   -10.7097 C       0      r0    -0.0022
     58 C           13.2650   -10.7943   -10.5628 C       0      r0    -0.0109
     59 H          -12.5760    -8.7555    -9.1460 H       0      r0     0.0208
     60 C          -12.5284    -4.7834    -8.8053 C       6      r6    -0.0000
     61 C          -12.0606    -8.3407   -12.4010 C       7      r7    -0.0033
     62 C          -11.8872    -4.9421   -11.2490 C       6      r6     0.0010
     63 C          -11.7501    -6.0422    -8.6033 C       6      r6    -0.0046
     64 C          -11.0693    -6.0941   -10.9913 C       6      r6    -0.0023
     65 C          -10.8709    -6.5790    -9.6105 C       6      r6    -0.0020
     66 C          -10.1585    -6.7352   -11.9983 C       6      r6    -0.0005
     67 C           -9.8978    -7.6427    -9.2324 C       6      r6    -0.0080
     68 C           -8.7097    -6.3779   -12.1834 C       6      r6    -0.0017
     69 C           -8.4344    -5.1336   -10.1152 C       0      r0     0.0010
     70 C           -8.4748    -7.5894    -9.5973 C       6      r6     0.0046
     71 C           -8.2785    -5.0936   -11.5908 C       0      r0     0.0013
     72 C           -7.7197    -6.3366    -9.6357 C       6      r6    -0.0024
     73 C           -6.2430    -6.3520    -9.6765 C       6      r6     0.0023
     74 C           -5.6533    -7.4348   -10.4838 C       6      r6    -0.0068
     75 C           -5.2380    -6.9056   -11.7795 C       7      r7    -0.0006
     76 C           -5.2918    -5.2636    -9.4215 C       7      r7     0.0016
     77 C           -4.1940    -5.9317   -11.8988 C       6      r6    -0.0036
     78 C           -3.8942    -5.8084    -9.4304 C       7      r7    -0.0019
     79 C           -3.5747    -6.8548    -8.4663 C       5      r5    -0.0003
     80 C           -3.2743    -5.6242   -10.7558 C       6      r6    -0.0028
     81 C           -2.2040    -4.6403   -10.8973 C       6      r6    -0.0038
     82 C           -1.3489    -4.3937    -9.7332 C       5      r5    -0.0041
     83 C           -1.1009    -5.2905    -8.6161 C       5      r5    -0.0016
     84 C           -1.2963    -8.5745   -11.0740 C       5      r5    -0.0005
     85 C           -1.1145    -7.4909   -11.9603 C       6      r6    -0.0006
     86 C           -1.0187    -6.8025    -8.6947 C       0      r0    -0.0006
     87 C           -0.1905    -8.7222   -10.1338 C       5      r5    -0.0008
     88 C           -0.0966    -6.5507   -12.1053 C       6      r6     0.0045
     89 C           -0.0001    -7.4684    -9.3966 C       5      r5    -0.0020
     90 C            0.8062    -6.0170   -11.2061 C       6      r6     0.0008
     91 C            1.2648    -6.7689    -9.9898 C       6      r6     0.0048
     92 C            1.3698    -4.8783   -11.6541 C       6      r6     0.0395
     93 C            1.9606    -8.0744   -10.6412 C       5      r5     0.0004
     94 C            2.2973    -6.0114    -9.1185 C       6      r6     0.0027
     95 C            2.4100    -4.5963    -9.4432 C       6      r6    -0.0038
     96 C            3.1195    -8.1303   -11.4147 C       7      r7     0.0364
     97 C            4.1806    -7.1141   -11.1226 C       5      r5    -0.0611
     98 C            4.2937    -6.0559   -11.8644 C       6      r6     0.2394
     99 C            4.5915    -7.2648    -8.5988 C       6      r6     0.0004
    100 C            5.2962    -7.3369    -9.9474 C       5      r5     0.0045
    101 C            5.5042    -5.4706   -11.2673 C       6      r6    -0.0554
    102 C            6.1784    -6.0804   -10.1685 C       5      r5     0.0106
    103 C            6.1340    -8.7149   -10.1285 C       7      r7    -0.0011
    104 C            6.1315    -4.5474   -12.1845 C       6      r6     0.0340
    105 C            7.5509    -5.9885    -9.7345 C       7      r7    -0.0030
    106 C            8.2596    -4.7931    -9.1916 C       5      r5     0.0021
    107 C            8.3728    -6.6810   -10.7478 C       7      r7    -0.0013
    108 C            8.5230    -8.1352   -10.7290 C       6      r6     0.0018
    109 C            9.2088    -5.7028   -11.6040 C       7      r7    -0.0008
    110 C            9.6317    -4.8852    -8.6359 C       5      r5     0.0005
    111 C            9.8080    -8.7140   -10.4311 C       6      r6    -0.0048
    112 C           10.4904    -5.1109   -10.9094 C       7      r7    -0.0010
    113 C           10.7242    -5.4146    -9.4165 C       7      r7     0.0017
    114 C           10.9240    -6.7730    -9.0127 C       5      r5    -0.0004
    115 C           10.9531    -7.9592    -9.9547 C       5      r5     0.0010
    116 C           11.2410    -4.4116   -11.7330 C       0      r0     0.0005
    117 C           12.2453    -8.5409    -9.6999 C       5      r5    -0.0035
    118 C           12.6054    -8.1637    -8.3170 C       6      r6    -0.0024
    119 C          -13.6199    -2.3368   -12.1100 C       7      r7    -0.0015
    120 C          -13.3776    -0.4776   -10.0954 C       7      r7     0.0001
    121 C          -13.2044    -0.9415    -8.6855 C       0      r0     0.0003
    122 C          -13.0066    -1.5200   -11.0344 C       7      r7    -0.0016
    123 C          -12.0927    -4.1245   -10.0315 C       6      r6     0.0002
    124 C          -12.1639    -4.3594   -12.5861 C       5      r5     0.0019
    125 C          -11.5675    -1.7568   -10.8455 C       6      r6     0.0007
    126 C          -11.1882    -2.9164   -10.0785 C       6      r6     0.0013
    127 C          -10.6011    -0.6543   -10.9071 C       6      r6     0.0031
    128 C           -9.9207    -3.0745    -9.4115 C       6      r6     0.0028
    129 C           -9.4990    -0.7100    -9.9543 C       6      r6     0.0097
    130 C           -9.2657    -1.8134    -9.1207 C       6      r6     0.0041
    131 C           -8.9883    -4.2187    -9.1383 C       7      r7     0.0011
    132 C           -7.2466    -4.1737   -12.1365 C       7      r7     0.0093
    133 O           -6.7559    -0.3743   -11.9662 O       5      r5    -0.5015
    134 C           -6.7076    -2.9538   -11.5912 C       7      r7    -0.0380
    135 C           -6.5014    -1.7579   -12.4126 C       5      r5     0.2448
    136 C           -5.9301    -2.8436   -10.3410 C       5      r5     0.0192
    137 C           -5.4928    -3.7907    -9.3484 C       5      r5    -0.0059
    138 C           -4.9318    -1.7662   -10.1637 C       5      r5     0.0332
    139 C           -3.8320    -2.0062    -9.1452 C       5      r5    -0.0002
    140 C           -1.9922    -3.8677   -12.1158 C       6      r6    -0.0033
    141 C           -1.1645    -2.6732   -12.3928 C       6      r6    -0.0053
    142 C           -0.9486    -3.0424    -9.2486 C       6      r6    -0.0039
    143 C           -0.6851    -1.8380    -9.9866 C       6      r6    -0.0011
    144 C           -0.8411    -1.6309   -11.5156 C       7      r7    -0.0019
    145 C           -0.4793    -0.6894    -9.0524 C       6      r6    -0.0042
    146 C           -0.2028    -0.3543   -12.0607 C       6      r6    -0.0012
    147 C            0.7558    -0.0246    -8.6676 C       6      r6     0.0057
    148 C            1.2490    -0.5515   -11.8922 C       6      r6    -0.0027
    149 C            2.1492    -0.5684    -8.6282 C       0      r0    -0.0033
    150 C            2.2369    -1.2685   -11.0528 C       6      r6    -0.0034
    151 C            2.2343    -4.0340   -10.7670 C       6      r6     0.0117
    152 C            2.9402    -0.7181    -9.8300 C       0      r0    -0.0029
    153 C            3.4180    -1.8584   -11.6953 C       6      r6    -0.0011
    154 C            3.4425    -3.1471   -10.9036 C       5      r5     0.0134
    155 C            3.5816    -4.0441    -8.7113 C       5      r5     0.0002
    156 C            4.3454    -3.3099    -9.7615 C       5      r5    -0.0011
    157 C            4.2983    -0.6437   -12.0306 C       6      r6    -0.0011
    158 C            5.5963    -2.4832    -9.4927 C       7      r7    -0.0015
    159 C            5.7038    -1.3251    -8.4646 C       5      r5    -0.0019
    160 C            5.8008    -0.5497   -11.8183 C       7      r7     0.0000
    161 C            6.7977    -2.9376   -10.2302 C       7      r7     0.0016
    162 C            6.7947    -3.3244   -11.6656 C       5      r5    -0.0046
    163 C            6.7975    -2.5970    12.3987 C       5      r5    -0.0002
    164 C            6.8139    -1.1734    12.5372 C       7      r7    -0.0017
    165 C            7.6727    -3.4763    -9.1738 C       5      r5    -0.0000
    166 C           12.0241    -3.6341    12.6218 C       7      r7     0.0018
    167 C           12.2483    -1.1444   -12.0060 C       5      r5     0.0011
    168 C           12.8902    -2.4129   -12.2299 C       7      r7    -0.0001
    169 C          -13.2429     3.1987    -8.9085 C       6      r6     0.0006
    170 C          -13.0030     1.3630   -11.5587 C       6      r6    -0.0024
    171 C          -12.5342     2.6270   -11.2148 C       6      r6    -0.0037
    172 C          -12.3367     3.5746   -12.3124 C       6      r6    -0.0027
    173 C          -12.0837     2.9960    -9.8089 C       6      r6    -0.0020
    174 C          -10.8734     3.7755    -9.9190 C       6      r6    -0.0024
    175 C          -10.2651     0.4535   -11.8125 C       6      r6     0.0083
    176 C           -9.9938     3.7699    -8.7242 C       6      r6    -0.0029
    177 C           -9.2747     1.4991   -11.4893 C       6      r6     0.0142
    178 C           -8.5527     0.3159    -9.7019 C       6      r6     0.0330
    179 C           -8.5105     1.6583   -10.2409 C       6      r6     0.0074
    180 C           -7.7601    -0.1306    -8.6678 C       6      r6     0.0059
    181 C           -7.4772     2.6198    -9.8243 C       6      r6     0.0077
    182 C           -7.1271     4.0197   -10.1234 C       6      r6    -0.0018
    183 C           -6.7324     2.0565    -8.7177 C       6      r6     0.0024
    184 C           -5.8670     4.0027   -12.1572 C       6      r6    -0.0028
    185 C           -0.4851     3.9638    -8.8422 C       6      r6     0.2650
    186 C            0.8125     3.5529    -9.3252 C       6      r6    -0.0567
    187 C            1.4359     2.3466    -8.8008 C       6      r6     0.0398
    188 C            2.9300     2.2064    -8.8720 C       7      r7    -0.0106
    189 C            3.6490     1.6566   -10.0219 C       7      r7    -0.0006
    190 C            3.5220     0.5137   -12.3103 C       6      r6    -0.0011
    191 C            4.0483     0.2660    -9.8179 C       7      r7    -0.0025
    192 C            4.3561     2.4747   -11.1035 C       6      r6     0.0006
    193 C            5.2542     3.4726   -10.8697 C       6      r6    -0.0060
    194 C            5.4612     0.0770    -9.3519 C       5      r5    -0.0034
    195 C            5.4933     3.8096    -9.4388 C       7      r7     0.0072
    196 C            5.7174     4.2978   -12.1777 C       6      r6    -0.0005
    197 C            6.2548     0.2021   -10.6577 C       5      r5    -0.0004
    198 C            7.3938     1.1017   -10.6112 C       5      r5    -0.0005
    199 C            7.4336     1.6142    -9.2301 C       5      r5     0.0006
    200 C            8.1642     3.8678   -11.6665 C       7      r7    -0.0029
    201 C            8.2858     1.4231   -11.7811 C       7      r7     0.0002
    202 C            8.4316     2.6737   -12.5186 C       0      r0    -0.0004
    203 C            8.4495     2.3838    -8.5135 C       5      r5     0.0038
    204 C            8.9566     0.3082   -12.5481 C       7      r7     0.0014
    205 C            8.9903     4.0986   -10.4318 C       6      r6    -0.0001
    206 C            9.2947     3.2885    -9.2518 C       6      r6     0.0028
    207 C           10.4429     0.3159   -12.4175 C       5      r5     0.0020
    208 C           11.5345     1.0138   -11.6425 C       6      r6    -0.0006
    209 C           11.6388     3.5473   -12.4826 C       6      r6     0.0009
    210 C           11.8594     2.4970   -11.4741 C       6      r6     0.0002
    211 C           12.5646     0.1691   -11.3313 C       6      r6     0.0004
    212 C           12.6926     2.9131   -10.4361 C       6      r6    -0.0019
    213 C           12.9961     4.3526   -10.3376 C       6      r6     0.0028
    214 C           13.5930     2.0105    -9.5638 C       6      r6    -0.0028
    215 C           13.8640     0.7359   -10.6208 C       6      r6    -0.0001
    216 C           13.9774     7.0075    -9.6980 C       6      r6     0.0227
    217 C          -13.9621     4.5483    -9.3248 C       6      r6     0.0005
    218 C          -13.7544     5.8480    -8.7932 C       6      r6     0.0048
    219 C          -13.4551     8.2117    -9.0567 C       6      r6     0.0237
    220 C          -11.7581     4.8874   -12.0007 C       6      r6    -0.0002
    221 C          -11.6171     7.4778   -12.2559 C       6      r6    -0.0023
    222 C          -10.9467     4.9194   -10.8205 C       6      r6    -0.0010
    223 C          -10.8472     7.3828   -11.0326 C       6      r6    -0.0047
    224 C          -10.4682     8.4862   -10.1586 C       6      r6     0.0082
    225 C          -10.4130     6.1516   -10.4125 C       6      r6     0.0005
    226 C           -9.5357     6.1205    -9.2774 C       6      r6     0.0110
    227 C           -9.3105     8.3938    -9.3591 C       6      r6     0.0466
    228 C           -8.6914     7.1660    -9.2691 C       6      r6    -0.0058
    229 C           -7.8534     5.6131   -12.1085 C       6      r6    -0.0037
    230 C           -7.4569     7.0033   -12.1231 C       6      r6    -0.0016
    231 C           -7.3561     6.9997    -9.7374 C       7      r7    -0.0038
    232 C           -7.1872     7.8198   -10.9602 C       6      r6    -0.0057
    233 C           -6.9747     4.6169   -11.4247 C       7      r7    -0.0006
    234 C           -6.4376     6.1858    -8.9559 C       6      r6     0.0034
    235 C           -6.3286     4.7331    -9.1048 C       6      r6     0.0019
    236 C           -0.6279     8.4589    -9.0899 C       6      r6     0.0025
    237 C           -0.3966     5.3792    -8.8325 C       5      r5    -0.0458
    238 C            0.7592     5.8358    -9.5583 C       6      r6     0.0012
    239 C            0.9223     8.6905    -9.1349 C       6      r6    -0.0022
    240 C            1.5050     4.6839   -10.0049 C       6      r6     0.0049
    241 C            1.5938     7.1087    -9.4619 C       6      r6    -0.0010
    242 C            1.7995     8.7980   -11.2136 C       5      r5    -0.0026
    243 C            2.0170     7.5188   -10.7809 C       5      r5    -0.0008
    244 C            2.8009     6.8455   -11.6895 C       6      r6    -0.0054
    245 C            2.8657     6.5640    -8.8328 C       6      r6     0.0007
    246 C            2.9354     4.7972   -10.3395 C       6      r6    -0.0005
    247 C            3.4145     5.5057   -11.5535 C       6      r6    -0.0029
    248 C            3.6706     5.4352    -9.2487 C       6      r6    -0.0031
    249 C            3.7090     7.6315    -8.4336 C       6      r6    -0.0020
    250 C            4.6262     5.4113   -12.3218 C       6      r6    -0.0035
    251 C            5.1253     5.2259    -9.0470 C       6      r6     0.0168
    252 C            5.9283     6.3478    -8.6643 C       6      r6     0.0272
    253 C            7.1295     4.8835   -11.9400 C       6      r6    -0.0021
    254 C            7.5006     6.1568   -12.4421 C       6      r6    -0.0068
    255 C            8.9097     6.6104   -12.2676 C       6      r6     0.0038
    256 C            9.7109     5.3315   -10.3367 C       6      r6     0.0067
    257 C            9.8028     6.3641   -11.2465 C       5      r5    -0.0048
    258 C           10.6316     5.7610    -9.2895 C       6      r6    -0.0671
    259 C           10.8170     7.3529   -10.8733 C       5      r5    -0.0488
    260 C           10.8977     7.1486    -9.4471 C       6      r6     0.2596
    261 O           11.5499     7.9376    -8.3739 O       6      r6    -0.5281
    262 C           12.0026     5.0098   -12.4487 C       6      r6    -0.0012
    263 C           12.0848     7.6428   -11.5502 C       7      r7     0.0240
    264 C           12.7793     5.4539   -11.2656 C       6      r6    -0.0002
    265 C           13.1765     6.8132   -10.9715 C       6      r6    -0.0011
    266 C          -13.8829    11.4092    -8.8580 C       7      r7     0.0315
    267 C          -13.6936    10.5554   -10.0130 C       7      r7    -0.0031
    268 C          -13.1701    10.9355   -12.5256 C       5      r5     0.0015
    269 C          -12.8471     9.4008    -9.8057 C       7      r7     0.0095
    270 C          -11.4375     9.6074   -10.1866 C       7      r7     0.0175
    271 C          -11.0334    10.5231   -11.2942 C       7      r7    -0.0082
    272 C          -10.5145    11.6895   -11.0899 C       0      r0     0.0015
    273 C           -9.9483    12.9822   -10.9577 C       6      r6     0.0056
    274 C           -8.3241     9.4026    -8.8023 C       5      r5     0.0197
    275 C           -8.3479    11.8488    -8.3823 C       6      r6    -0.0196
    276 C           -7.5863    10.0498    -9.8735 C       5      r5    -0.0110
    277 C           -7.3266    11.3920    -9.3760 C       5      r5     0.0251
    278 C           -7.1046     9.2639   -10.9857 C       6      r6     0.0012
    279 C           -6.8426    12.4344   -12.5669 C       7      r7     0.0035
    280 C           -6.7887     9.8102   -12.3044 C       6      r6    -0.0013
    281 C           -6.1930    11.1768   -12.2350 C       7      r7    -0.0006
    282 C           -5.9786    11.8901    -9.3859 C       5      r5    -0.0038
    283 C           -5.5387    13.0109    -8.6577 C       5      r5     0.0552
    284 C           -4.8685    11.1821   -11.5904 C       7      r7     0.0002
    285 C           -4.8143    11.3852   -10.1420 C       5      r5    -0.0015
    286 C           -3.8266    11.8815   -12.3817 C       6      r6     0.0009
    287 C           -3.6512    12.0865    -9.6041 C       5      r5     0.0004
    288 C           -2.2337    11.8418    -9.4411 C       6      r6     0.0003
    289 C           -1.8146    10.5387    -8.9071 C       6      r6    -0.0022
    290 C           -1.4591     9.4140    -9.7913 C       6      r6    -0.0005
    291 C           -1.3917    12.1412   -12.3162 C       6      r6    -0.0010
    292 C           -1.3251    12.9838    -9.0244 C       6      r6     0.0006
    293 C           -1.2525     9.1398   -12.4920 C       7      r7    -0.0003
    294 C           -0.9703     9.6915   -11.1703 C       6      r6    -0.0028
    295 C           -0.0302    11.6892   -12.0029 C       5      r5     0.0013
    296 C            0.2169    10.6120   -11.0072 C       6      r6     0.0009
    297 C            0.8552    12.7975    12.6123 C       6      r6     0.0023
    298 C            1.0240     9.5701   -10.4062 C       6      r6     0.0027
    299 C            1.2159    12.8324    -8.8610 C       5      r5     0.0011
    300 C            2.2389    11.8250    -8.4265 C       5      r5     0.0028
    301 C            3.3937    12.8873   -11.6906 C       5      r5     0.0049
    302 C            3.5873    12.0784    -8.6651 C       7      r7     0.0020
    303 C            8.2417    10.5337   -10.8902 C       0      r0     0.0047
    304 C            8.3307    11.7515   -11.6318 C       0      r0     0.0469
    305 C            8.4036    12.9782   -12.1511 C       6      r6    -0.0277
    306 C            8.6142    10.8709    -9.3894 C       0      r0     0.0019
    307 C           10.0037    11.1025    -9.2052 C       0      r0     0.0519
    308 C           11.2960    11.3273    -9.1763 C       7      r7    -0.0164
    309 C           11.9036    12.2457   -10.4592 C       7      r7     0.2192
    310 C           12.7304    11.7841   -11.6804 C       5      r5    -0.0097
    311 C           13.7610    12.8742    -9.0156 C       7      r7     0.0038
    312 C          -13.9319    11.1549   -11.3939 C       5      r5    -0.0061
    313 C          -13.6134   -11.9340    -5.0146 C       7      r7     0.0371
    314 C          -13.1747   -11.1768    -7.4902 C       5      r5     0.0137
    315 C          -12.7530   -11.5133    -6.0240 C       5      r5     0.0313
    316 C          -11.9398   -10.3430    -7.7398 C       6      r6    -0.0171
    317 C          -11.3660   -11.2486    -5.8386 C       5      r5     0.0395
    318 C          -10.8795   -10.9030    -7.0814 C       6      r6     0.0644
    319 C          -10.6684   -10.9929    -4.5850 C       5      r5    -0.0060
    320 C           -9.8589   -12.0937    -4.2371 C       6      r6     0.0197
    321 C           -9.5939   -10.8279    -7.5206 C       6      r6    -0.0074
    322 C           -8.6761   -11.7548    -8.0690 C       5      r5     0.2078
    323 C           -7.6418   -12.1669    -4.8654 C       6      r6     0.0062
    324 C           -6.6939   -11.3986    -5.6567 C       5      r5    -0.0022
    325 C           -6.5507    -9.2822    -4.3327 C       6      r6    -0.0023
    326 C           -6.6257    -9.9461    -5.6270 C       6      r6     0.0061
    327 C           -5.8818   -11.7974    -6.7241 C       5      r5     0.0165
    328 C           -5.7898    -9.4901    -6.6824 C       6      r6    -0.0044
    329 C           -5.4382   -10.6732    -7.3972 C       6      r6     0.0482
    330 C           -4.2759   -10.5276    -8.2091 C       6      r6    -0.0028
    331 C           -3.7697    -9.1821    -8.3461 C       6      r6     0.0019
    332 C           -2.3424    -8.9452    -8.2115 C       5      r5    -0.0012
    333 C           -2.4061   -10.9992    -4.9117 C       5      r5    -0.0037
    334 C           -1.2329    -9.8977    -7.7907 C       6      r6    -0.0010
    335 C           -1.0488   -11.0110    -5.4324 C       5      r5     0.0005
    336 C           -0.6685    -9.8021    -6.3792 C       6      r6    -0.0003
    337 C           -0.0897   -11.8122    -4.6065 C       5      r5     0.0002
    338 C            0.8789    -9.6187    -6.6831 C       6      r6    -0.0008
    339 C            1.3806   -12.1664    -4.6513 C       0      r0     0.0015
    340 C            1.6967   -10.5627    -7.4245 C       6      r6     0.0011
    341 C            3.1802   -10.8921    -7.2659 C       7      r7    -0.0000
    342 C            3.5225    -9.3310    -5.3151 C       5      r5     0.0003
    343 C            3.8630   -10.5500    -6.0127 C       7      r7     0.0005
    344 C            3.9945   -11.4019    -8.3562 C       7      r7    -0.0019
    345 C            5.0201   -11.3981    -5.6796 C       7      r7     0.0021
    346 C            5.4664   -12.1884    -4.4501 C       7      r7     0.0014
    347 C            5.9793   -11.6777    -6.7249 C       7      r7     0.0003
    348 C            6.3226   -10.6699    -7.7669 C       7      r7    -0.0006
    349 C            7.1963    -9.4734    -7.5147 C       5      r5     0.0004
    350 C            8.5825    -9.3713    -7.1294 C       5      r5    -0.0014
    351 C            9.4692   -11.7402    -6.9787 C       6      r6     0.0028
    352 C            9.6508   -10.3589    -7.3926 C       6      r6     0.0005
    353 C            9.8909    -8.9003    -4.2618 C       7      r7    -0.0016
    354 C           10.6350   -12.1895    -6.1991 C       6      r6    -0.0001
    355 C           10.9727   -10.2712    -8.0262 C       6      r6    -0.0063
    356 C           12.0282   -11.7162    -6.2805 C       6      r6     0.0072
    357 C           12.2317   -10.7277    -7.3025 C       6      r6     0.0001
    358 C           12.9002   -12.0263    -5.1648 C       6      r6     0.0092
    359 C           13.5599   -10.2319    -7.5264 C       7      r7    -0.0094
    360 C           13.9769    -7.9477    -6.3243 C       6      r6    -0.0018
    361 C          -12.8106    -8.6108    -4.3525 C       6      r6    -0.0020
    362 C          -12.7038    -8.0759    -5.6517 C       6      r6    -0.0026
    363 C          -11.4540    -7.5203    -6.3148 C       6      r6    -0.0015
    364 C          -11.5378    -6.3109    -7.1245 C       6      r6    -0.0021
    365 C          -11.2439    -5.0039    -6.4467 C       6      r6    -0.0006
    366 C          -10.2879    -7.6057    -5.4323 C       6      r6    -0.0003
    367 C           -9.9166    -4.4718    -6.1739 C       6      r6    -0.0003
    368 C           -9.1691    -6.9551    -5.6511 C       0      r0    -0.0004
    369 C           -8.7185    -5.1471    -6.7872 C       7      r7    -0.0023
    370 C           -8.0831    -6.2751    -6.0495 C       7      r7    -0.0007
    371 C           -6.5799    -6.2214    -5.6068 C       7      r7    -0.0009
    372 C           -5.8706    -4.9769    -5.3412 C       6      r6     0.0008
    373 C           -5.7412    -8.1242    -4.3381 C       6      r6    -0.0006
    374 C           -5.6620    -7.4070    -5.6385 C       6      r6    -0.0009
    375 C           -5.4180    -8.0982    -6.8911 C       6      r6     0.0026
    376 C           -4.6674    -4.9720    -4.4735 C       6      r6     0.0014
    377 C           -4.5125    -7.9161    -8.0282 C       6      r6     0.0006
    378 C           -3.4776    -4.3723    -5.0047 C       6      r6    -0.0008
    379 C           -2.2664    -7.4656    -8.2798 C       5      r5    -0.0002
    380 C           -2.0730    -4.9913    -4.8690 C       6      r6     0.0015
    381 C           -2.1191    -8.2892    -4.7977 C       0      r0    -0.0001
    382 C           -1.2708    -4.5418    -7.3841 C       5      r5    -0.0009
    383 C           -1.2630    -5.2671    -6.0484 C       7      r7     0.0005
    384 C           -1.1648    -8.3927    -5.7971 C       5      r5    -0.0002
    385 C           -0.0761    -6.0698    -5.7738 C       7      r7     0.0013
    386 C            0.0012    -7.4957    -5.8809 C       5      r5    -0.0006
    387 C            0.8702    -5.5076    -4.7776 C       7      r7     0.0017
    388 C            1.2345    -8.3312    -6.1718 C       5      r5     0.0001
    389 C            2.3102    -5.6939    -5.0579 C       7      r7     0.0012
    390 C            2.5968    -8.2286    -5.6280 C       5      r5    -0.0008
    391 C            2.9194    -7.0219    -4.8821 C       5      r5    -0.0005
    392 C            3.4311    -6.4218    -8.3249 C       6      r6     0.0004
    393 C            3.8919    -5.1130    -7.7285 C       6      r6     0.0015
    394 C            4.4648    -4.5133    -5.3081 C       0      r0    -0.0004
    395 C            4.8142    -5.2367    -6.5549 C       6      r6     0.0000
    396 C            5.2354    -7.5227    -7.3479 C       6      r6    -0.0013
    397 C            5.2981    -6.5377    -6.1920 C       6      r6    -0.0002
    398 C            6.5056    -8.1770    -7.2012 C       5      r5    -0.0017
    399 C            6.3264    -6.8346    -5.1837 C       5      r5     0.0007
    400 C            7.2406    -7.6637    -6.0682 C       5      r5     0.0005
    401 C            8.5695    -8.2277    -6.1736 C       5      r5     0.0006
    402 C            9.6898    -7.8628    -5.2592 C       7      r7    -0.0004
    403 C           10.4040    -6.6032    -5.6226 C       7      r7     0.0012
    404 C           10.1578    -5.3462    -4.9273 C       0      r0     0.0023
    405 C           11.6487    -6.8886    -6.3878 C       6      r6    -0.0011
    406 C           11.7762    -7.0713    -7.8450 C       6      r6     0.0001
    407 C           12.5152    -8.3160    -4.3339 C       6      r6    -0.0009
    408 C           12.7131    -7.6192    -5.6109 C       6      r6    -0.0013
    409 C           13.6797    -8.7879    -7.4866 C       6      r6    -0.0029
    410 C          -13.3576    -2.6678    -4.6225 C       6      r6     0.0009
    411 C          -13.2339    -4.0087    -7.7339 C       6      r6     0.0015
    412 C          -12.3587    -4.0164    -6.5341 C       6      r6     0.0012
    413 C          -12.2336    -2.9228    -5.5605 C       6      r6     0.0004
    414 C          -12.2459    -0.3869    -7.7030 C       0      r0    -0.0006
    415 C          -11.4803     0.0162    -6.9484 C       0      r0    -0.0005
    416 C          -10.8661    -2.3673    -5.3096 C       6      r6    -0.0012
    417 C          -10.4677    -1.2763    -4.3110 C       6      r6    -0.0003
    418 C           -9.7046    -3.1201    -5.6051 C       6      r6    -0.0000
    419 C           -8.5634    -2.7056    -4.6862 C       6      r6     0.0002
    420 C           -8.1198    -1.4168    -8.3393 C       5      r5     0.0037
    421 C           -8.1221    -4.4283    -7.9563 C       7      r7    -0.0007
    422 C           -7.2553    -2.1532    -7.3807 C       7      r7     0.0011
    423 C           -7.0916    -2.3961    -4.9042 C       6      r6    -0.0002
    424 C           -7.0361    -3.6018    -7.3587 C       7      r7     0.0009
    425 C           -6.7850    -1.5843    -6.1075 C       6      r6    -0.0023
    426 C           -5.8643    -4.0809    -6.5815 C       6      r6    -0.0014
    427 C           -5.8236    -0.4721    -6.1635 C       6      r6    -0.0018
    428 C           -4.4587    -3.1955    -8.4874 C       5      r5    -0.0015
    429 C           -4.5651    -3.4752    -6.9726 C       6      r6     0.0007
    430 C           -4.6420    -0.7479    -5.3097 C       6      r6    -0.0019
    431 C           -3.5160    -3.3148    -6.0191 C       6      r6    -0.0011
    432 C           -3.3372    -0.7211    -6.0011 C       6      r6    -0.0058
    433 C           -2.5799    -2.0613    -5.9187 C       6      r6     0.0010
    434 C           -2.2180    -1.8635    -4.3393 C       6      r6    -0.0018
    435 C           -1.5926    -1.9328    -7.0666 C       6      r6    -0.0008
    436 C           -1.2874    -0.7175    -7.7829 C       6      r6     0.0081
    437 C           -1.2510    -1.0550    -4.2366 C       0      r0     0.0003
    438 C           -1.1390    -3.1251    -7.7786 C       6      r6    -0.0004
    439 C            2.0207    -0.6777    -5.3532 C       6      r6    -0.0042
    440 C            2.5276    -3.0247    -4.8996 C       6      r6    -0.0022
    441 C            3.0130    -0.4138    -7.4492 C       5      r5    -0.0008
    442 C            2.7902    -1.9018    -5.7340 C       6      r6    -0.0030
    443 C            3.0130    -4.4152    -5.1861 C       7      r7     0.0016
    444 C            3.5890    -1.6764    -6.9661 C       5      r5    -0.0029
    445 C            5.0164    -1.8843    -7.2469 C       5      r5    -0.0013
    446 C            5.7834    -2.6382    -4.7716 C       5      r5     0.0009
    447 C            5.9107    -2.4389    -6.2122 C       5      r5    -0.0019
    448 C            7.1614    -0.8507    -7.6436 C       6      r6    -0.0010
    449 C            7.0806    -0.0379    -4.7974 C       6      r6     0.0129
    450 C            7.2036    -1.8097    -6.4061 C       6      r6    -0.0018
    451 C            7.7916    -1.2822    -5.1869 C       6      r6    -0.0032
    452 C            8.5479    -1.2803    -8.1323 C       6      r6    -0.0022
    453 C            8.6123    -2.7012    -8.3473 C       6      r6    -0.0032
    454 C            8.9595    -1.9871    -4.5361 C       0      r0    -0.0011
    455 C            9.8512    -3.0339    -4.8385 C       0      r0    -0.0038
    456 C            9.8055    -0.7901    -7.6388 C       6      r6    -0.0016
    457 C            9.7906    -3.5405    -8.0593 C       6      r6     0.0013
    458 C           10.7629    -3.9728    -5.1393 C       0      r0     0.0008
    459 C           11.0328    -1.5507    -8.0737 C       6      r6    -0.0011
    460 C           11.0829    -2.9551    -7.7138 C       6      r6     0.0005
    461 C           12.2607    -3.6179    -5.6041 C       0      r0     0.0004
    462 C           12.3147    -0.8924    -8.3072 C       6      r6     0.0010
    463 C           12.3712    -3.4094    -7.0404 C       6      r6     0.0024
    464 C           13.2680    -3.3865    -4.6286 C       7      r7     0.0009
    465 C           13.5460    -1.6698    -8.2616 C       6      r6     0.0004
    466 C           13.6004    -3.0719    -7.7679 C       6      r6     0.0012
    467 C          -13.3964     3.3639    -7.3789 C       6      r6     0.0022
    468 C          -10.5032     0.6441    -6.1539 C       7      r7    -0.0027
    469 C          -10.2638     3.2852    -5.4717 C       7      r7    -0.0008
    470 C          -10.1472     2.7748    -7.6935 C       7      r7    -0.0025
    471 C          -10.2517     2.1836    -6.5253 C       7      r7    -0.0024
    472 C           -9.9973     0.1143    -4.9850 C       6      r6    -0.0008
    473 C           -6.7566     0.7837    -8.1823 C       6      r6     0.0086
    474 C           -5.4706     4.1420    -8.1218 C       6      r6     0.0063
    475 C           -5.8108     0.6226    -7.1094 C       5      r5     0.0020
    476 C           -5.6757     2.7345    -8.0676 C       6      r6     0.0108
    477 C           -5.2108     1.9241    -7.0247 C       6      r6    -0.0002
    478 C           -4.0979     3.9040    -6.1461 C       6      r6     0.0152
    479 C           -4.2228     2.4996    -6.1868 C       6      r6     0.0123
    480 C           -3.2256     1.6924    -5.4785 C       6      r6     0.0083
    481 C           -2.7592     0.5249    -6.3341 C       6      r6     0.0284
    482 C           -1.5501     0.5860    -7.2224 C       6      r6    -0.0438
    483 O           -1.3116     3.1350    -7.9349 O       6      r6    -0.5048
    484 C           -0.8475     1.6621    -7.8099 C       6      r6     0.2436
    485 C            0.4741     1.3564    -8.2663 C       6      r6    -0.0525
    486 C            2.4530     0.3453    -6.2906 C       5      r5     0.0002
    487 C            2.8627     3.3424    -4.2832 C       5      r5     0.0041
    488 C            2.8722     1.5874    -5.7160 C       5      r5    -0.0031
    489 C            2.9384     1.8531    -4.2518 C       5      r5     0.0019
    490 C            3.3042     3.7678    -5.5995 C       5      r5     0.0298
    491 C            3.5051     2.6465    -6.4863 C       5      r5     0.0162
    492 C            3.9239     2.6787    -7.8879 C       7      r7     0.0107
    493 C            5.2851     2.6968    -8.4843 C       7      r7     0.0325
    494 C            6.1518     1.3528    -8.3734 C       5      r5     0.0057
    495 C            6.7112     0.5627    -7.2183 C       6      r6    -0.0018
    496 C            7.0102     1.0390    -5.8740 C       6      r6     0.0372
    497 C            7.9518     2.2099    -5.7699 C       6      r6    -0.0137
    498 C            8.3536     2.9760    -4.5911 C       6      r6     0.2599
    499 C            8.5888     2.5897    -7.0091 C       6      r6     0.0214
    500 C            9.6020     3.6395    -4.5974 C       6      r6    -0.0430
    501 C            9.7120     3.4298    -6.9343 C       6      r6    -0.0071
    502 C           10.0206     0.2343    -5.1130 C       5      r5    -0.0006
    503 C           10.1274     0.1426    -6.5852 C       6      r6    -0.0042
    504 C           10.1220     3.8518    -8.2063 C       6      r6    -0.0047
    505 C           10.2647     4.0073    -5.7940 C       6      r6     0.0115
    506 C           11.0322     1.0704    -4.5124 C       5      r5     0.0009
    507 C           11.4306     0.8033    -6.8214 C       6      r6    -0.0026
    508 C           12.0014     1.4070    -5.6287 C       6      r6    -0.0027
    509 C           12.1850     0.5881    -8.0496 C       6      r6    -0.0021
    510 C           13.2067     2.1192    -5.6697 C       6      r6    -0.0006
    511 C           13.2493     1.5510    -8.2309 C       6      r6    -0.0017
    512 C           13.7593     3.0293    -4.5416 C       6      r6    -0.0022
    513 C           13.7027     2.2331    -7.0201 C       6      r6    -0.0026
    514 C          -13.9401     4.3951    -5.1321 C       6      r6    -0.0008
    515 C          -13.4817     8.2611    -7.5890 C       6      r6     0.0575
    516 C          -13.5502     4.5454    -6.5353 C       6      r6     0.0004
    517 C          -13.3822     7.0571    -6.6854 C       6      r6     0.0051
    518 C          -13.5296     5.7788    -7.3370 C       6      r6     0.0039
    519 C          -13.1714     7.1905    -5.2540 C       0      r0     0.0136
    520 C           -9.8602     5.7449    -5.0075 C       7      r7    -0.0019
    521 C           -9.9523     4.5764    -5.8935 C       7      r7    -0.0020
    522 C           -9.4426     5.0483    -8.3087 C       6      r6     0.0024
    523 C           -9.4091     5.2670    -6.9571 C       7      r7    -0.0026
    524 C           -9.1770     6.4671    -6.0863 C       7      r7     0.0330
    525 C           -8.2294     7.7614    -4.4159 C       7      r7    -0.0008
    526 C           -8.0149     7.2759    -5.8070 C       7      r7     0.0028
    527 C           -7.1176     7.6287    -6.9598 C       0      r0     0.0022
    528 C           -6.1472     6.6894    -7.6016 C       6      r6    -0.0065
    529 C           -4.9154     6.2371    -6.9981 C       6      r6     0.0005
    530 C           -4.6608     4.7540    -7.1174 C       6      r6     0.0089
    531 C           -4.3144     7.3656    -6.3095 C       5      r5    -0.0017
    532 C           -4.0136     5.8705    -4.3401 C       6      r6    -0.0022
    533 C           -3.6731     8.5211    -7.0221 C       5      r5    -0.0009
    534 C           -3.5033     6.9747    -5.1321 C       6      r6     0.0031
    535 C           -3.3651     4.4895    -5.0190 C       6      r6    -0.0092
    536 C           -2.1691     8.3224    -6.8970 C       6      r6     0.0026
    537 C           -2.0971     7.1587    -5.6667 C       6      r6    -0.0049
    538 C           -1.9272     4.8202    -5.6611 C       6      r6     0.0464
    539 C           -1.8674     5.9134    -6.5954 C       6      r6     0.0106
    540 C           -1.2051     7.6719    -8.0499 C       5      r5    -0.0046
    541 C           -1.0691     6.2617    -7.7976 C       5      r5     0.0332
    542 C           -0.9002     7.3347    -4.7022 C       6      r6    -0.0005
    543 C           -0.9315     4.7967    -4.5954 C       6      r6    -0.0033
    544 C           -0.5746     8.6431    -4.3811 C       6      r6     0.0018
    545 C            3.8603     5.0874    -5.3488 C       5      r5    -0.0390
    546 C            5.1964     7.6009    -8.4389 C       6      r6    -0.0058
    547 C            5.3108     5.4103    -5.4633 C       5      r5     0.2534
    548 C            5.6522     6.1393    -4.3217 C       6      r6    -0.0469
    549 O            6.3020     4.7023    -6.3342 O       7      r7    -0.4958
    550 C            7.1214     6.5955    -7.8429 C       6      r6    -0.0530
    551 C            7.3387     5.7551    -6.7707 C       5      r5     0.2359
    552 C            7.8492     7.9019    -7.6316 C       6      r6     0.0096
    553 C            8.2361     6.4100    -4.4144 C       7      r7     0.0237
    554 C            8.2192     6.4779    -5.8824 C       5      r5    -0.0482
    555 C            8.8375     7.6202    -6.5875 C       5      r5     0.0030
    556 C            9.9766     8.3961    -6.0683 C       7      r7     0.0286
    557 C           10.9564     4.9689    -8.2432 C       6      r6     0.0395
    558 C           11.1580     7.5063    -5.9046 C       5      r5    -0.0521
    559 C           11.0917     6.3687    -4.9916 C       5      r5    -0.0012
    560 C           11.0582     5.1923    -5.8012 C       6      r6     0.0085
    561 C           11.4978     5.6439    -7.1004 C       6      r6    -0.0678
    562 C           11.6228     7.0591    -7.1399 C       6      r6     0.2426
    563 C           13.3982     5.3539    -4.1771 C       5      r5    -0.0071
    564 C          -13.2090     9.4628    -6.8240 C       5      r5    -0.0711
    565 O          -13.1111    11.8031    -6.1840 O       5      r5    -0.4658
    566 C          -11.8498    11.0533    -6.2667 C       5      r5     0.1456
    567 C          -11.8552     9.7183    -6.5808 C       5      r5     0.2011
    568 C          -10.7073    11.5049    -6.8681 C       6      r6     0.1768
    569 O          -10.6891     9.0546    -7.1544 O       5      r5    -0.4992
    570 O          -10.2649    12.9065    -7.0144 O       6      r6    -0.4985
    571 C          -10.0222    10.3891    -7.3321 C       6      r6     0.1672
    572 C          -10.0621    12.6338    -4.3215 C       6      r6     0.0338
    573 C           -8.9673    10.6023    -8.1352 C       6      r6    -0.0129
    574 C           -8.9566    13.0145    -7.7945 C       6      r6     0.1815
    575 C           -8.8395    11.9319    -4.4645 C       6      r6     0.0015
    576 C           -7.6320    12.5397    -4.9110 C       6      r6     0.0031
    577 C           -7.1527     8.8716    -7.7783 C       0      r0     0.0061
    578 C           -6.4573    11.7580    -5.3071 C       6      r6    -0.0037
    579 C           -6.2848    10.6342    -4.5410 C       6      r6    -0.0031
    580 C           -6.2376     9.7661    -7.4358 C       0      r0    -0.0034
    581 C           -5.8373    12.9987    -7.3634 C       7      r7     0.0031
    582 C           -5.7676    11.9301    -6.4998 C       7      r7    -0.0053
    583 C           -5.2540    10.5749    -7.0740 C       7      r7    -0.0028
    584 C           -4.1006     9.8031    -6.5231 C       7      r7    -0.0052
    585 C           -3.7786    10.0003    -5.0393 C       6      r6    -0.0013
    586 C           -2.6085    10.3487    -4.4076 C       6      r6    -0.0007
    587 C           -1.4379     9.6071    -6.5277 C       6      r6    -0.0022
    588 C           -1.2417     9.9269    -5.0432 C       6      r6     0.0018
    589 C           -1.1595    10.5075    -7.5548 C       6      r6    -0.0007
    590 C           -0.1125    11.0665    -4.9659 C       6      r6    -0.0014
    591 C           -0.0899    12.5271    -8.4576 C       6      r6    -0.0008
    592 C            0.1251    11.3584    -7.3955 C       6      r6    -0.0005
    593 C            0.5454    11.7713    -5.9570 C       6      r6     0.0010
    594 C            1.5405    10.7372    -7.7775 C       5      r5    -0.0006
    595 C            1.6471    12.7496    -5.5869 C       0      r0     0.0021
    596 C            1.8336     9.3951    -8.1501 C       6      r6    -0.0015
    597 C            3.0133    12.4172    -5.5731 C       0      r0     0.0025
    598 C            3.2791     9.0072    -8.2179 C       6      r6    -0.0011
    599 C            4.3683    12.0532    -5.5858 C       7      r7    -0.0014
    600 C            4.4966     9.7686    -7.9402 C       5      r5    -0.0028
    601 C            4.5725    11.2407    -7.9901 C       7      r7    -0.0003
    602 C            5.2697    12.5270    -4.4564 C       7      r7     0.0001
    603 C            5.1202    12.0708    -6.8880 C       7      r7    -0.0021
    604 C            5.6663     8.8776    -8.0224 C       6      r6     0.0013
    605 C            6.2265    12.9982    -7.0639 C       7      r7    -0.0018
    606 C            7.0756     9.1140    -7.6780 C       6      r6    -0.0023
    607 C            7.4409    12.7028    -7.8169 C       6      r6     0.0020
    608 C            7.6077    11.3409    -8.4198 C       6      r6     0.0018
    609 C            7.6758    10.3980    -7.2855 C       6      r6    -0.0013
    610 C            8.6533   -12.9597    -7.1283 C       6      r6     0.0043
    611 C            8.8982    10.6664    -6.5320 C       6      r6    -0.0040
    612 C            9.3222    12.0954    -6.3707 C       6      r6    -0.0016
    613 C           10.1129     9.8103    -6.3473 C       7      r7     0.0077
    614 C           10.4445    12.6213    -5.6130 C       6      r6     0.0013
    615 C           11.4546    10.3616    -6.6450 C       5      r5     0.0207
    616 C           11.4317    12.3019    -4.5885 C       6      r6    -0.0022
    617 C           11.9385    10.8179    -8.0060 C       5      r5     0.0417
    618 C           12.2669    11.1102    -4.4855 C       0      r0     0.0231
    619 C           12.5570    10.4128    -5.7280 C       5      r5    -0.0248
    620 C           13.2655    11.0512    -7.8334 C       5      r5    -0.0195
    621 C           13.8476    10.6370    -6.6131 C       5      r5     0.2056
    622 C          -13.6117   -11.3618    -2.7213 C       6      r6    -0.0060
    623 C          -13.1243   -11.4213    -1.3446 C       6      r6     0.0022
    624 C          -13.0436   -10.1663    -0.5883 C       6      r6    -0.0018
    625 C          -13.0332   -12.2413    -3.6093 C       6      r6     0.0060
    626 C          -12.3138   -12.4360    -0.6383 C       6      r6    -0.0016
    627 C          -11.7573    -9.4920    -0.8244 C       6      r6    -0.0022
    628 C           -9.9058    -9.8712    -4.1030 C       6      r6    -0.0009
    629 C           -8.6760   -10.2974    -3.6366 C       6      r6    -0.0008
    630 C           -8.5856   -11.6831    -3.9985 C       6      r6    -0.0111
    631 C           -7.9067   -10.2596    -0.9175 C       0      r0    -0.0028
    632 C           -7.5929    -9.4184    -3.2273 C       6      r6    -0.0003
    633 C           -7.0215    -9.9618    -1.8363 C       7      r7    -0.0036
    634 C           -5.9436    -9.3231     0.0611 C       0      r0     0.0025
    635 C           -5.7324    -9.3013    -1.2782 C       7      r7     0.0006
    636 C           -3.6569    -8.7362    -2.6707 C       6      r6    -0.0012
    637 C           -2.6517    -9.6743    -2.0384 C       5      r5     0.0009
    638 C           -2.5542   -11.1450    -2.2336 C       5      r5    -0.0023
    639 C           -2.2210   -11.7160    -3.5201 C       5      r5    -0.0023
    640 C           -1.6117   -11.4414    -1.1062 C       6      r6     0.0005
    641 C           -1.5183    -9.0859    -1.3811 C       5      r5     0.0014
    642 C           -1.2622   -12.6539    -0.6089 C       6      r6    -0.0010
    643 C           -0.8948   -10.2068    -0.7415 C       6      r6     0.0013
    644 C           -0.9279   -12.4620    -3.6049 C       5      r5    -0.0006
    645 C            2.1931   -11.9444    -3.5525 C       0      r0     0.0013
    646 C            3.0782   -11.7812    -2.4630 C       6      r6    -0.0012
    647 C            3.5862   -12.9533    -1.6857 C       6      r6    -0.0008
    648 C            3.9380   -10.5433    -2.2259 C       6      r6    -0.0005
    649 C            4.2167   -10.5404    -0.7101 C       6      r6    -0.0012
    650 C            4.1053    -8.8737    -4.1105 C       5      r5     0.0007
    651 C            4.7853    -9.7566    -3.0924 C       0      r0     0.0005
    652 C            5.0010   -12.8926    -1.1659 C       6      r6     0.0009
    653 C            5.0653    -9.2907    -0.0229 C       6      r6    -0.0010
    654 C            5.3538   -11.6357    -0.6213 C       6      r6    -0.0015
    655 C            6.2654   -10.1158    -3.3214 C       6      r6     0.0007
    656 C            6.4600   -11.5168    -3.5702 C       6      r6     0.0002
    657 C            6.5608   -11.0970    -0.0148 C       6      r6    -0.0002
    658 C            7.3704    -9.2541    -3.5252 C       6      r6     0.0011
    659 C            7.8410   -11.9606    -3.4432 C       6      r6    -0.0017
    660 C            8.7580    -9.7192    -3.7751 C       6      r6     0.0000
    661 C            8.9728   -11.0923    -3.4294 C       6      r6    -0.0010
    662 C           10.0860   -11.8237    -2.9712 C       5      r5     0.0003
    663 C           11.2870    -8.9178    -3.5291 C       5      r5    -0.0012
    664 C           11.5138   -11.6292    -3.1461 C       7      r7    -0.0033
    665 C           12.0200   -10.2794    -3.1906 C       5      r5     0.0007
    666 C           12.1143   -12.6119    -4.0672 C       6      r6     0.0024
    667 C           13.4494   -10.1891    -3.1275 C       5      r5    -0.0015
    668 C           13.7369    -9.0110    -3.9445 C       6      r6    -0.0005
    669 C          -13.7153    -8.0784    -0.5224 C       6      r6    -0.0010
    670 C          -13.6208    -6.6202    -2.7070 C       6      r6    -0.0007
    671 C          -13.1281    -7.7931    -1.8234 C       6      r6    -0.0000
    672 C          -12.6756    -5.7502    -2.6848 C       0      r0     0.0011
    673 C          -11.8947    -8.5256    -1.9486 C       7      r7    -0.0010
    674 C          -11.7062    -8.5000    -3.4230 C       6      r6    -0.0013
    675 C          -11.6768    -4.8074    -2.5907 C       5      r5     0.0014
    676 C          -10.2977    -8.3796    -3.9613 C       6      r6    -0.0011
    677 C          -10.1937    -4.9822    -2.6562 C       6      r6     0.0015
    678 C           -9.3133    -7.4651    -3.0736 C       6      r6    -0.0015
    679 C           -9.2169    -6.0348    -2.8700 C       6      r6     0.0002
    680 C           -7.9950    -7.8893    -2.9909 C       6      r6     0.0004
    681 C           -7.8199    -5.6260    -2.6869 C       6      r6     0.0014
    682 C           -7.3197    -4.4892    -2.0984 C       6      r6     0.0020
    683 C           -7.0225    -6.8719    -2.7536 C       6      r6     0.0004
    684 C           -5.9619    -4.4225    -1.5286 C       6      r6     0.0002
    685 C           -5.5640    -7.2783    -3.0628 C       6      r6    -0.0002
    686 C           -4.8784    -8.4147    -2.1873 C       6      r6     0.0010
    687 C           -4.7979    -5.2026    -1.8804 C       5      r5     0.0005
    688 C           -4.5286    -5.9289    -3.2044 C       6      r6     0.0011
    689 C           -4.3102    -5.4523    -0.5543 C       6      r6    -0.0004
    690 C           -3.1337    -6.4472    -3.3283 C       6      r6     0.0006
    691 C           -2.9827    -7.8624    -3.7455 C       6      r6    -0.0004
    692 C           -2.2565    -6.9450    -0.5388 C       0      r0     0.0002
    693 C           -1.9539    -5.5926    -3.5380 C       6      r6     0.0009
    694 C           -1.3071    -7.5360    -1.1298 C       0      r0     0.0011
    695 C           -0.6187    -5.7139    -2.8406 C       7      r7     0.0002
    696 C           -0.3066    -6.5394    -1.6965 C       0      r0     0.0001
    697 C            0.6103    -6.0452    -0.6817 C       0      r0    -0.0002
    698 C            0.4753    -4.9943    -3.4959 C       7      r7     0.0013
    699 C            2.0876    -5.7183    -0.7419 C       6      r6     0.0004
    700 C            2.3583    -4.2757    -0.6300 C       6      r6    -0.0009
    701 C            3.2040    -6.5913    -1.1058 C       6      r6     0.0011
    702 C            3.3920    -7.8153    -0.3371 C       6      r6     0.0013
    703 C            3.8745    -7.4492    -3.8497 C       5      r5     0.0007
    704 C            4.3348    -5.9939    -1.9032 C       6      r6     0.0011
    705 C            4.5247    -4.5507    -1.7493 C       6      r6    -0.0003
    706 C            4.8713    -6.7625    -3.0477 C       0      r0     0.0005
    707 C            6.2516    -6.9340    -3.6950 C       0      r0     0.0009
    708 C            7.2599    -7.8211    -3.1162 C       0      r0     0.0006
    709 C            7.7717    -6.2044    -0.2412 C       6      r6     0.0007
    710 C            8.4406    -5.4064    -1.3398 C       6      r6    -0.0007
    711 C            8.5869    -7.4746    -2.6732 C       7      r7     0.0010
    712 C            8.6825    -5.9928    -2.6450 C       6      r6     0.0003
    713 C            9.0284    -8.4529    -0.3823 C       5      r5     0.0004
    714 C            9.5530    -8.1256    -1.7416 C       7      r7     0.0011
    715 C            9.7955    -5.4420    -3.5074 C       6      r6     0.0002
    716 C           10.8424    -5.0223    -2.5842 C       6      r6     0.0003
    717 C           10.9578    -8.1647    -2.1885 C       0      r0     0.0006
    718 C           12.0899    -7.3510    -1.7968 C       6      r6    -0.0001
    719 C           12.2798    -5.0118    -2.9102 C       6      r6     0.0016
    720 C           12.8104    -6.2884    -2.5231 C       6      r6     0.0007
    721 C           12.8631    -7.6844    -0.5587 C       6      r6     0.0011
    722 C          -13.7555    -2.0159    -0.7391 C       6      r6     0.0005
    723 C          -13.6342    -4.2489     0.1459 C       5      r5     0.0003
    724 C          -13.1477    -3.3550    -0.8807 C       5      r5    -0.0003
    725 C          -12.9227    -1.5653    -3.7480 C       6      r6    -0.0001
    726 C          -12.5704    -0.9064    -0.3739 C       6      r6     0.0005
    727 C          -11.9486    -3.6570    -1.6795 C       5      r5    -0.0004
    728 C          -11.7187    -0.8427    -3.4950 C       6      r6     0.0019
    729 C          -10.6625    -3.0683    -1.3855 C       6      r6    -0.0010
    730 C          -10.4189    -2.1704    -0.3489 C       6      r6     0.0014
    731 C           -9.6598    -3.8636    -1.9396 C       6      r6     0.0005
    732 C           -9.0873    -1.8701    -3.6842 C       6      r6     0.0006
    733 C           -8.3661    -3.6892    -1.5515 C       6      r6     0.0003
    734 C           -8.1477    -2.9446    -0.3655 C       6      r6    -0.0006
    735 C           -8.0701    -1.2416    -2.8715 C       6      r6     0.0023
    736 C           -6.7778    -1.9154    -2.6211 C       6      r6     0.0004
    737 C           -6.0950    -2.1261    -3.8723 C       6      r6    -0.0017
    738 C           -5.9728    -1.3947    -1.4803 C       7      r7     0.0007
    739 C           -5.9130    -3.8390    -0.2783 C       6      r6    -0.0012
    740 C           -4.6882    -1.7287    -4.2247 C       6      r6    -0.0023
    741 C           -4.6153    -0.8770    -1.7984 C       7      r7     0.0012
    742 C           -3.4074    -1.7319    -2.0046 C       7      r7    -0.0000
    743 C           -3.4355    -1.9028    -3.4778 C       6      r6    -0.0011
    744 C           -2.4730    -2.3827    -1.0875 C       0      r0    -0.0003
    745 C           -1.6509    -2.8627    -0.2287 C       0      r0     0.0013
    746 C           -0.2044    -0.1523    -4.1004 C       7      r7     0.0022
    747 C            1.1851    -2.2652    -0.8054 C       6      r6     0.0008
    748 C            1.1312    -3.7966    -2.8711 C       6      r6     0.0003
    749 C            1.2791    -3.5990    -1.4128 C       6      r6     0.0004
    750 C            1.2875    -0.5390    -4.0856 C       6      r6    -0.0028
    751 C            1.3835    -1.1369    -1.6671 C       6      r6    -0.0061
    752 C            1.7385    -1.4247    -3.0300 C       6      r6    -0.0021
    753 C            1.8255    -2.8097    -3.6234 C       6      r6    -0.0017
    754 C            3.7199    -3.7683    -0.7757 C       6      r6    -0.0013
    755 C            3.9496    -2.3279    -0.4944 C       6      r6    -0.0010
    756 C            4.6046    -1.4805    -1.4803 C       6      r6    -0.0038
    757 C            5.2715    -2.2987    -2.4846 C       6      r6     0.0008
    758 C            5.0497    -3.7117    -2.8236 C       6      r6    -0.0004
    759 C            5.2781    -3.8903    -4.2445 C       5      r5    -0.0001
    760 C            5.7750    -1.6495    -3.6707 C       6      r6    -0.0070
    761 C            6.1433    -0.2469    -3.7415 C       6      r6     0.0191
    762 C            7.2334    -3.1260    -0.0345 C       5      r5     0.0003
    763 C            8.0748    -0.8653    -0.2425 C       6      r6     0.0022
    764 C            8.4758    -2.9514    -0.7837 C       6      r6    -0.0006
    765 C            9.0675    -1.5967    -0.8863 C       6      r6     0.0021
    766 C            9.1330    -4.1094    -1.1818 C       6      r6    -0.0004
    767 C            9.6315    -0.7091    -4.0511 C       5      r5     0.0048
    768 C           10.3867    -1.3044    -1.5233 C       6      r6    -0.0004
    769 C           10.3429    -0.4050    -2.8984 C       6      r6     0.0046
    770 C           10.3718    -3.8269    -1.8471 C       6      r6    -0.0006
    771 C           11.1281    -2.5837    -1.8223 C       6      r6    -0.0012
    772 C           11.3907    -0.6046    -0.4688 C       6      r6     0.0008
    773 C           12.4297    -2.5856    -2.4025 C       6      r6    -0.0015
    774 C           12.8966    -3.6712    -3.2049 C       6      r6     0.0002
    775 C           13.2814    -1.3842    -1.8848 C       6      r6    -0.0003
    776 C           13.9285    -0.7959    -3.0674 C       6      r6     0.0001
    777 C          -12.8565     1.3019    -3.2291 C       6      r6     0.0011
    778 C          -12.8610     2.6461    -3.6806 C       7      r7    -0.0004
    779 C          -11.7620     0.3671    -2.7048 C       6      r6     0.0037
    780 C          -11.7045     0.2265    -1.2329 C       0      r0     0.0013
    781 C          -11.6555     3.4236    -3.3227 C       0      r0     0.0009
    782 C          -11.1557     1.2182    -0.5661 C       0      r0     0.0001
    783 C          -11.0436     4.2373    -2.2381 C       7      r7    -0.0015
    784 C          -10.3985     2.9693    -4.0498 C       7      r7     0.0009
    785 C           -9.3267     2.1894    -3.4340 C       5      r5    -0.0030
    786 C           -9.1967     0.7998    -3.9690 C       6      r6    -0.0007
    787 C           -8.1068     0.2393    -3.1030 C       6      r6     0.0004
    788 C           -8.2170     2.5001    -2.5310 C       6      r6    -0.0029
    789 C           -7.7862     3.6916    -1.8541 C       6      r6    -0.0080
    790 C           -7.3554     1.2696    -2.4170 C       6      r6    -0.0021
    791 C           -6.4103     3.8331    -1.3035 C       6      r6     0.0060
    792 C           -5.9704     1.3841    -1.9019 C       6      r6    -0.0017
    793 C           -5.6309     2.6923    -1.3839 C       6      r6    -0.0029
    794 C           -4.7899     0.5618    -1.8197 C       5      r5    -0.0068
    795 C           -4.2624     2.7182    -1.0022 C       6      r6     0.0049
    796 C           -3.7165     1.3214    -1.0943 C       6      r6     0.0303
    797 C           -3.5432     3.8448    -0.6077 C       6      r6     0.0007
    798 C           -2.6695     2.1391    -4.2421 C       6      r6     0.0024
    799 C           -2.8379     3.5407    -3.9494 C       6      r6     0.0022
    800 C           -2.3426     1.3849    -1.7267 C       6      r6    -0.0604
    801 C           -2.2489     3.8472    -0.1039 C       5      r5     0.0232
    802 C           -2.0327     1.2862    -3.1252 C       5      r5     0.0048
    803 C           -1.5097     4.0353    -3.4936 C       5      r5     0.0018
    804 C           -1.1552     1.4528    -1.0191 C       6      r6     0.2484
    805 C           -1.0591     4.1220    -0.7970 C       5      r5     0.0072
    806 C           -0.6728     0.8437    -3.1110 C       5      r5    -0.0025
    807 C           -0.0245     1.0415    -1.8009 C       5      r5    -0.0458
    808 C            0.9925     0.2024    -1.1407 C       6      r6     0.0133
    809 C            4.1691     2.1347    -0.2253 C       7      r7    -0.0008
    810 C            4.0177     1.2101    -3.5738 C       0      r0     0.0130
    811 C            4.8448    -0.0279    -1.5324 C       6      r6     0.0007
    812 C            4.7755     0.7971    -0.3348 C       7      r7     0.0057
    813 C            4.9078     3.3631    -0.6377 C       6      r6     0.0088
    814 C            5.0566     0.5007    -2.9992 C       6      r6     0.0216
    815 C            6.2800     3.6531    -0.3135 C       6      r6     0.0146
    816 O            7.6389     2.9846    -3.2959 O       5      r5    -0.4682
    817 C            8.2236     0.5676     0.0646 C       6      r6     0.0092
    818 C            8.6485     3.9659    -2.5815 C       6      r6     0.2158
    819 C            9.8152     4.2543    -3.2553 C       6      r6    -0.0340
    820 C           11.2596     0.6371    -3.1586 C       6      r6     0.0041
    821 C           12.5615     1.0050    -2.3093 C       6      r6    -0.0003
    822 C           12.4890     2.5661    -2.1367 C       6      r6    -0.0001
    823 C           12.6690    -0.0479    -1.0927 C       6      r6    -0.0002
    824 C           12.5497     3.0175    -0.8028 C       6      r6    -0.0018
    825 C           12.6425     3.3022    -3.3685 C       5      r5    -0.0013
    826 C           13.5984     0.7224    -0.1678 C       6      r6    -0.0009
    827 C           13.7892     0.5865    -3.0815 C       6      r6     0.0004
    828 C          -13.7047     6.0863    -3.2002 C       0      r0    -0.0023
    829 C          -13.4173     5.5027    -2.0207 C       0      r0     0.0002
    830 C          -12.9612     7.2875    -3.9115 C       0      r0    -0.0014
    831 C          -12.9757     4.9832    -0.8578 C       0      r0     0.0013
    832 C          -11.7861     8.0589    -3.2884 C       6      r6     0.0126
    833 C          -11.5891     4.5498    -0.9167 C       7      r7     0.0037
    834 C          -10.4879     7.4886    -3.4241 C       6      r6     0.0157
    835 C          -10.0669     6.0632    -3.6222 C       7      r7    -0.0008
    836 C           -9.8372     4.9563    -2.6726 C       7      r7     0.0036
    837 C           -9.5015     8.4086    -4.0113 C       6      r6     0.0203
    838 C           -8.6640     4.8457    -1.7698 C       7      r7    -0.0011
    839 C           -8.6167     5.6318    -0.4954 C       7      r7     0.0081
    840 C           -7.6506     8.0665    -0.6662 C       0      r0     0.0724
    841 C           -7.5046     8.3909    -2.0525 C       0      r0     0.0094
    842 C           -7.4817     6.5979    -0.2651 C       7      r7    -0.0428
    843 C           -7.3321     7.4414    -3.2588 C       0      r0     0.0014
    844 C           -6.2450     6.6874    -3.5195 C       0      r0     0.0038
    845 C           -6.1311     6.1911    -0.2049 C       5      r5     0.2289
    846 C           -5.7265     4.9311    -0.7834 C       6      r6    -0.0411
    847 C           -5.2525     6.1423    -3.7916 C       0      r0     0.0001
    848 O           -5.0478     7.2052     0.0688 O       5      r5    -0.4786
    849 C           -4.2991     4.9906    -0.6201 C       6      r6    -0.0322
    850 C           -3.8084     6.2582    -0.2016 C       5      r5     0.2112
    851 C           -2.4768     6.6365    -0.2290 C       0      r0    -0.0334
    852 C           -1.1346     6.9842    -0.3324 C       0      r0     0.0173
    853 C           -1.0996     4.5464    -2.2035 C       5      r5    -0.0065
    854 C           -0.6337     5.9038    -2.5780 C       5      r5     0.0002
    855 C           -0.4930     6.9902    -1.7101 C       7      r7    -0.0013
    856 C           -0.5087     6.0743    -4.0402 C       6      r6    -0.0043
    857 C            0.5936     7.8904    -2.2154 C       6      r6    -0.0032
    858 C            1.9366     7.8899    -1.6372 C       6      r6    -0.0063
    859 C            2.0130     5.2975    -1.0214 C       0      r0    -0.0073
    860 C            2.3618     6.7404    -0.8840 C       0      r0    -0.0050
    861 C            2.8257     4.4341    -1.8760 C       6      r6    -0.0016
    862 C            2.6654     4.4246    -3.3391 C       6      r6     0.0027
    863 C            3.3408     5.5088    -4.0169 C       6      r6     0.0003
    864 C            4.2656     4.3637    -1.5366 C       6      r6     0.0078
    865 C            4.5000     6.0573    -3.3459 C       6      r6     0.0028
    866 C            4.9797     5.4988    -2.0979 C       6      r6     0.0120
    867 C            5.4117     8.1801    -0.0414 C       6      r6     0.0043
    868 C            6.2498     5.9366    -1.5762 C       6      r6     0.0045
    869 C            6.7528     8.4060    -2.5570 C       7      r7    -0.0027
    870 C            6.8837     6.9323    -2.4377 C       6      r6    -0.0035
    871 C            6.9953     4.9293    -0.7063 C       6      r6     0.0192
    872 C            6.9822     6.4822    -3.8370 C       6      r6     0.0282
    873 C            8.4736     4.7349    -1.3938 C       6      r6    -0.0367
    874 C            9.0963     8.0377    -2.7960 C       6      r6    -0.0015
    875 C            9.2808     6.8724    -3.6144 C       7      r7    -0.0079
    876 C            9.3997     5.6845    -0.9244 C       6      r6     0.0041
    877 C           10.2904     8.3893    -2.0593 C       6      r6    -0.0053
    878 C           10.5562     6.3762    -3.7502 C       7      r7     0.0023
    879 C           10.9314     5.9644    -1.3608 C       6      r6    -0.0074
    880 C           10.9378     5.2875    -2.9644 C       6      r6     0.0027
    881 C           11.1532     7.4613    -1.3555 C       6      r6    -0.0048
    882 C           12.0612     7.9826    -0.4024 C       6      r6    -0.0002
    883 C           12.0323     5.5521    -0.4391 C       6      r6     0.0005
    884 C           12.2823     4.6393    -3.5473 C       5      r5    -0.0026
    885 C           12.6395     4.3242    -0.1365 C       6      r6    -0.0009
    886 C          -12.8274    10.2158    -2.0337 C       7      r7     0.0282
    887 C          -12.1785    12.5711    -1.6282 C       6      r6    -0.0055
    888 C          -12.2329    12.7535    -3.1116 C       6      r6     0.0185
    889 C          -12.0033    11.2007    -1.1886 C       7      r7    -0.0359
    890 C          -11.9075     9.4799    -3.0110 C       6      r6     0.0239
    891 C          -11.1730    11.9279    -3.7772 C       6      r6     0.0130
    892 C          -11.0368    10.4249    -3.6697 C       6      r6     0.0009
    893 C          -10.8537    10.8984    -0.3884 C       5      r5     0.2306
    894 O          -10.3720     9.4765    -0.3326 O       5      r5    -0.4943
    895 C           -9.7494     9.8254    -3.9339 C       6      r6     0.0136
    896 C           -8.6345    10.5939    -4.2480 C       6      r6     0.0006
    897 C           -7.3802    10.2361    -3.7756 C       6      r6    -0.0025
    898 C           -7.2149     9.7886    -2.4038 C       6      r6     0.0029
    899 C           -5.8930    10.2228    -1.9314 C       6      r6     0.0087
    900 C           -5.4979    10.8791    -0.8075 C       6      r6     0.0089
    901 C           -4.9665    10.1458    -4.2470 C       6      r6    -0.0071
    902 C           -4.8041     9.9737    -2.8978 C       6      r6     0.0082
    903 C           -4.0585    10.9393    -0.8721 C       6      r6     0.0151
    904 C           -3.7067    10.4504    -2.1952 C       6      r6     0.0071
    905 C           -3.2902    11.9757    -0.2120 C       6      r6    -0.0016
    906 C           -2.6246    10.8037    -2.9892 C       6      r6     0.0008
    907 C           -2.0916    12.2683    -0.8998 C       6      r6     0.0017
    908 C           -1.7318    11.6709    -2.2711 C       6      r6     0.0029
    909 C           -0.6121    12.3291    -2.9590 C       7      r7    -0.0009
    910 C            0.3381     8.8560    -3.2999 C       6      r6    -0.0021
    911 C            0.2831    11.3762    -3.5862 C       6      r6     0.0021
    912 C            0.6534    10.2028    -2.7749 C       6      r6     0.0003
    913 C            1.3368    10.4191    -1.5459 C       6      r6     0.0009
    914 C            1.4374    11.7431    -0.8001 C       6      r6    -0.0010
    915 C            2.3059     9.3383    -1.3324 C       6      r6    -0.0025
    916 C            2.8472    12.1946    -0.9124 C       6      r6     0.0003
    917 C            3.4368    11.0555    -0.0755 C       6      r6    -0.0031
    918 C            3.5481     9.8073    -0.7742 C       6      r6     0.0042
    919 C            5.0201     9.3746    -0.9762 C       6      r6     0.0005
    920 C            5.4612     9.1918    -2.5319 C       7      r7    -0.0034
    921 C            5.7862    12.0229    -0.6426 C       6      r6    -0.0006
    922 C            5.7085    10.3220    -3.1493 C       7      r7    -0.0029
    923 C            5.9717    10.5871    -0.6537 C       6      r6     0.0028
    924 C            6.1215    11.5071    -3.7565 C       7      r7    -0.0033
    925 C            7.5188    11.6074    -3.2108 C       6      r6    -0.0024
    926 C            7.9804     8.9770    -2.9125 C       6      r6    -0.0053
    927 C            8.2723    12.8483    -3.1590 C       6      r6    -0.0001
    928 C            8.2341    10.4557    -2.7769 C       6      r6    -0.0029
    929 C            9.5406    10.7040    -2.2902 C       6      r6    -0.0007
    930 C            9.6452    12.9674    -2.8650 C       6      r6    -0.0007
    931 C           10.3663     9.7519    -1.6099 C       6      r6    -0.0026
    932 C           10.3455    11.8228    -2.3765 C       6      r6    -0.0006
    933 C           11.5908    10.2965    -1.0985 C       6      r6    -0.0023
    934 C           11.6965    11.4166    -2.0059 C       5      r5    -0.0033
    935 C           12.4212     9.4474    -0.1859 C       6      r6     0.0012
    936 C           12.7430    11.1271    -3.0400 C       0      r0     0.0025
    937 C           13.9368    10.6675    -2.5366 C       0      r0     0.0017
    938 C          -13.8116   -10.1599     0.6606 C       6      r6    -0.0010
    939 C          -13.3487    -9.3658     1.8225 C       6      r6     0.0005
    940 C          -13.1023   -12.2694     2.3431 C       5      r5    -0.0006
    941 C          -12.0265   -11.4543     1.7084 C       0      r0     0.0005
    942 C          -11.9118    -9.9892     1.8990 C       6      r6     0.0006
    943 C          -11.4794    -9.3827     3.4385 C       6      r6     0.0005
    944 C          -11.4288   -12.1296     0.4738 C       7      r7    -0.0051
    945 C          -11.0903    -9.2881     0.5291 C       6      r6    -0.0014
    946 C          -10.0835   -12.7351     0.3422 C       6      r6     0.0106
    947 C          -10.0840    -9.6130     4.0117 C       5      r5     0.0005
    948 C           -9.5519   -12.2036     4.3202 C       5      r5    -0.0000
    949 C           -9.5948    -9.3438     0.5884 C       6      r6     0.0009
    950 C           -9.1245   -10.8289     4.0834 C       5      r5     0.0013
    951 C           -8.8612   -12.0017     0.6031 C       6      r6    -0.0022
    952 C           -8.8288   -10.5330     0.1067 C       0      r0    -0.0014
    953 C           -7.7045   -10.9067     4.1826 C       6      r6     0.0007
    954 C           -7.5903   -12.6887     0.7071 C       6      r6    -0.0016
    955 C           -6.6597    -9.7868     3.7476 C       6      r6     0.0010
    956 C           -6.0633   -12.4820     1.2664 C       6      r6    -0.0028
    957 C           -6.4108    -9.4089     1.4010 C       5      r5     0.0016
    958 C           -6.0114   -10.2751     2.4701 C       5      r5     0.0004
    959 C           -5.5236   -11.6549     2.3579 C       6      r6    -0.0020
    960 C           -4.2094   -12.0438     3.0589 C       6      r6    -0.0008
    961 C           -3.2828   -12.5193     2.0600 C       6      r6    -0.0011
    962 C           -1.9628   -12.0150     2.1489 C       7      r7    -0.0003
    963 C           -1.6090    -9.5755     3.5025 C       6      r6     0.0013
    964 C           -1.5876   -11.0827     3.2706 C       6      r6     0.0004
    965 C           -0.1268   -12.8017     0.4829 C       6      r6    -0.0019
    966 C            0.0581   -10.2129     0.3689 C       6      r6     0.0009
    967 C            0.3733    -8.9815     1.1969 C       5      r5     0.0009
    968 C            0.7000   -11.4750     0.4776 C       6      r6    -0.0012
    969 C            1.6852   -12.5022     3.2770 C       6      r6     0.0002
    970 C            2.0906   -11.3395     0.8260 C       7      r7    -0.0005
    971 C            2.5687    -8.9222     0.2768 C       6      r6     0.0001
    972 C            2.4351   -12.1560     2.0572 C       6      r6     0.0007
    973 C            2.9992   -10.2841     0.2663 C       6      r6    -0.0008
    974 C            3.7537   -12.8098     2.1878 C       6      r6    -0.0077
    975 C            4.7513   -11.1823     3.7231 C       5      r5    -0.0051
    976 C            4.8330   -12.4218     3.0714 C       5      r5     0.0165
    977 C            6.0839   -10.7344     3.8952 C       5      r5    -0.0023
    978 C            6.3208    -9.6694     0.3702 C       6      r6    -0.0007
    979 C            7.1404   -11.6504     3.2383 C       6      r6     0.0022
    980 C            7.6743   -10.9682     2.0524 C       6      r6    -0.0004
    981 C            7.6399   -11.6662     0.7857 C       6      r6    -0.0023
    982 C            8.3034    -9.5593     1.8685 C       6      r6    -0.0007
    983 C            8.8826   -12.5068     0.4015 C       6      r6     0.0011
    984 C            8.7718    -9.1739     3.2537 C       7      r7     0.0008
    985 C            9.1876    -9.5030     0.6222 C       5      r5    -0.0003
    986 C            9.7358   -11.4526     3.9814 C       5      r5     0.0020
    987 C            9.9407   -10.0261     3.6694 C       5      r5    -0.0011
    988 C           10.1811   -11.9253     0.4606 C       6      r6     0.0004
    989 C           10.2658   -10.4484     0.5597 C       6      r6     0.0003
    990 C           11.3406   -12.7578     0.8200 C       6      r6    -0.0009
    991 C           11.3579    -9.8074     3.8708 C       6      r6     0.0016
    992 C           11.5527    -9.7454     0.8573 C       6      r6     0.0008
    993 C           11.8483   -10.9760     4.6720 C       6      r6     0.0008
    994 C           12.2782    -9.1272     2.9531 C       6      r6     0.0007
    995 C           12.5775   -12.0387     1.0286 C       6      r6    -0.0009
    996 C           12.7676   -10.6004     0.7690 C       6      r6     0.0003
    997 C           13.5252   -12.7057     1.8589 C       6      r6    -0.0008
    998 C           13.6297    -9.6073     3.0456 C       6      r6     0.0014
    999 C           13.9526    -6.3956     2.9573 C       6      r6    -0.0003
   1000 C          -13.7264    -6.4955     1.3840 C       6      r6     0.0001
   1001 C          -13.2797    -7.2077     3.9390 C       6      r6    -0.0005
   1002 C          -13.0884    -7.9231     0.8870 C       6      r6     0.0014
   1003 C          -12.9647    -5.3994     0.7216 C       6      r6     0.0006
   1004 C          -11.9821    -7.9263     3.8553 C       6      r6     0.0002
   1005 C          -11.6142    -7.8549     0.8442 C       6      r6     0.0015
   1006 C          -11.5399    -5.3978     0.9410 C       6      r6    -0.0004
   1007 C          -10.8118    -6.7222     0.9784 C       6      r6     0.0010
   1008 C          -10.5492    -4.2298     3.7099 C       6      r6     0.0003
   1009 C          -10.0236    -4.7855     2.4412 C       6      r6     0.0003
   1010 C           -9.4247    -6.9410     1.3967 C       6      r6     0.0005
   1011 C           -9.1315    -5.9407     2.3961 C       6      r6    -0.0009
   1012 C           -8.8712    -8.2492     1.2217 C       6      r6     0.0022
   1013 C           -8.4563    -6.1858     3.6736 C       6      r6     0.0001
   1014 C           -7.8126    -7.4143     4.1651 C       7      r7    -0.0007
   1015 C           -7.5483    -8.4837     1.8812 C       5      r5     0.0014
   1016 C           -7.3686    -8.4233     3.2869 C       5      r5     0.0007
   1017 C           -6.3236    -4.6706     3.9714 C       6      r6     0.0008
   1018 C           -5.1207    -4.7572     1.8189 C       6      r6    -0.0006
   1019 C           -5.0773    -4.6621     0.4110 C       6      r6    -0.0006
   1020 C           -4.7307    -6.4442     3.6313 C       6      r6    -0.0001
   1021 C           -4.4221    -5.8938     2.2976 C       6      r6    -0.0004
   1022 C           -3.8203    -7.5764     3.7051 C       5      r5    -0.0001
   1023 C           -3.2815    -6.3361     0.0905 C       6      r6     0.0001
   1024 C           -3.5034    -6.6596     1.5980 C       6      r6     0.0001
   1025 C           -3.0481    -7.7372     2.4950 C       5      r5     0.0007
   1026 C           -1.7966    -8.5635     2.4206 C       0      r0     0.0003
   1027 C           -0.5908    -8.1106     1.7814 C       5      r5     0.0008
   1028 C           -0.1358    -5.8750     3.1227 C       6      r6     0.0000
   1029 C           -0.1867    -4.4927     1.2431 C       5      r5    -0.0025
   1030 C            0.1127    -5.7067     0.6876 C       5      r5    -0.0012
   1031 C            0.2125    -6.7434     1.9677 C       6      r6    -0.0003
   1032 C            0.4845    -4.5689     2.6708 C       6      r6    -0.0004
   1033 C            1.7641    -7.0869     1.9880 C       6      r6     0.0013
   1034 C            1.7092    -8.3958     1.3786 C       5      r5     0.0003
   1035 C            2.1003    -4.8493     2.6777 C       6      r6     0.0008
   1036 C            2.7156    -6.1481     2.4833 C       6      r6     0.0011
   1037 C            4.1877    -6.5438     2.7300 C       7      r7     0.0014
   1038 C            4.5944    -8.0156     0.4355 C       6      r6     0.0008
   1039 C            4.9403    -7.3489     1.7623 C       6      r6     0.0004
   1040 C            4.9527    -6.1538     3.9569 C       7      r7     0.0009
   1041 C            4.9555    -4.7086     4.2217 C       6      r6     0.0016
   1042 C            6.3682    -7.5715     1.9618 C       6      r6     0.0002
   1043 C            7.1865    -6.3339     2.2232 C       6      r6     0.0012
   1044 C            7.1065    -8.5110     1.0405 C       6      r6    -0.0003
   1045 C            7.1774    -5.5721     0.9340 C       6      r6     0.0014
   1046 C            7.9084    -7.6209     0.0602 C       6      r6     0.0008
   1047 C            7.9880    -6.1515     3.4418 C       6      r6     0.0006
   1048 C            9.4175    -6.0762     3.3832 C       6      r6     0.0008
   1049 C            9.8880    -5.6002     2.0687 C       5      r5     0.0003
   1050 C           11.1866    -5.7736     1.4922 C       5      r5    -0.0004
   1051 C           11.6218    -8.5886     1.7312 C       7      r7     0.0012
   1052 C           11.6840    -7.1194     1.3018 C       0      r0     0.0001
   1053 C           11.8541    -4.3802     1.3924 C       6      r6     0.0001
   1054 C           12.8039    -5.6572     3.4216 C       6      r6    -0.0002
   1055 C           12.8898    -6.7866     0.5953 C       5      r5     0.0008
   1056 C          -13.3343     0.0030     0.5665 C       6      r6    -0.0006
   1057 C          -11.7142    -0.4999     2.3974 C       6      r6    -0.0013
   1058 C          -11.6795    -1.7402     1.6041 C       6      r6    -0.0002
   1059 C          -11.5812    -3.0254     2.1457 C       5      r5     0.0015
   1060 C          -11.5353    -3.1620     3.6100 C       6      r6     0.0001
   1061 C          -11.4812    -1.5494     0.2227 C       6      r6     0.0011
   1062 C          -10.9347    -4.1740     1.4698 C       6      r6    -0.0005
   1063 C          -10.4999    -0.0257     3.1094 C       6      r6     0.0005
   1064 C           -9.0476    -2.0264     0.1702 C       6      r6     0.0021
   1065 C           -8.6773    -1.3977     1.4774 C       6      r6     0.0013
   1066 C           -8.4802     0.0864     1.6641 C       0      r0    -0.0014
   1067 C           -7.9644    -2.3039     2.3964 C       6      r6     0.0001
   1068 C           -7.6768    -1.8677     3.7689 C       7      r7     0.0002
   1069 C           -6.9153    -3.1632     1.9203 C       6      r6    -0.0003
   1070 C           -6.7716    -2.8974     0.3948 C       6      r6    -0.0004
   1071 C           -6.6515    -0.8311     3.5294 C       6      r6    -0.0001
   1072 C           -6.4176    -1.3843    -0.0900 C       0      r0     0.0010
   1073 C           -6.0648    -0.2262     0.7395 C       0      r0     0.0006
   1074 C           -6.1447    -4.1739     2.6075 C       6      r6     0.0001
   1075 C           -5.1991    -1.0647     3.3409 C       6      r6     0.0027
   1076 C           -4.5948    -0.1104     1.0520 C       6      r6     0.0097
   1077 C           -4.2946    -0.8484     2.2895 C       6      r6    -0.0066
   1078 C           -2.8854    -1.1970     2.5278 C       6      r6     0.0052
   1079 C           -2.4764    -2.0716     3.5855 C       6      r6    -0.0019
   1080 C           -1.9278    -0.3375     1.8828 C       6      r6    -0.0417
   1081 C           -1.3650    -3.0738     3.8954 C       5      r5    -0.0019
   1082 C           -0.6246    -3.1837     0.6796 C       0      r0    -0.0003
   1083 C           -0.4622    -0.4786     2.1525 C       0      r0     0.0426
   1084 C            0.0183    -3.2675     3.4887 C       6      r6     0.0001
   1085 C            0.4040    -0.8223     1.0168 C       6      r6     0.0049
   1086 C            0.4149    -2.1407     0.4704 C       6      r6    -0.0022
   1087 C            0.7800    -0.8861     4.2034 C       0      r0    -0.0006
   1088 C            0.9899    -2.2187     3.5165 C       6      r6    -0.0012
   1089 C            2.3142    -2.3718     2.8348 C       6      r6     0.0008
   1090 C            2.7562    -1.4061     1.8566 C       7      r7    -0.0043
   1091 C            2.9375    -3.7592     2.7830 C       6      r6    -0.0001
   1092 C            3.7983    -1.9892     0.9644 C       7      r7    -0.0018
   1093 C            4.3857    -3.8392     3.1536 C       6      r6     0.0005
   1094 C            5.1137    -1.9315     1.6210 C       7      r7    -0.0021
   1095 C            5.3603    -2.8135     2.8577 C       6      r6    -0.0018
   1096 C            6.0346    -0.9790     1.0423 C       6      r6    -0.0005
   1097 C            6.6161    -2.6616     3.5491 C       6      r6     0.0001
   1098 C            6.9968    -1.7156     0.2905 C       6      r6    -0.0006
   1099 C            7.1035    -4.1107     1.0527 C       7      r7    -0.0004
   1100 C            7.9623    -2.5174     2.9063 C       7      r7    -0.0004
   1101 C            8.1350    -3.6331     1.9778 C       7      r7     0.0002
   1102 C            8.9183    -0.6358     4.2895 C       5      r5     0.0018
   1103 C            8.9631    -1.5461     3.1493 C       5      r5     0.0001
   1104 C            9.4951    -4.2070     1.8432 C       5      r5     0.0001
   1105 C           10.1587    -1.3714     2.3005 C       5      r5     0.0001
   1106 C           10.6578    -3.4713     1.4438 C       6      r6    -0.0007
   1107 C           10.8119    -2.1133     1.2505 C       6      r6    -0.0000
   1108 C           10.5996    -0.0989     2.7578 C       5      r5    -0.0010
   1109 C           11.9098    -1.6172     0.5521 C       6      r6    -0.0003
   1110 C           12.5173    -3.2017     3.5381 C       0      r0     0.0025
   1111 C           12.5367    -4.2865     2.8253 C       0      r0     0.0002
   1112 C           13.0526    -2.4256     0.2598 C       6      r6     0.0008
   1113 C           13.0024    -3.8254     0.5293 C       6      r6     0.0000
   1114 C          -13.6359     3.0540     0.8414 C       6      r6    -0.0072
   1115 C          -13.2617     1.5252     2.6434 C       7      r7    -0.0028
   1116 C          -12.9748     2.8745     2.1109 C       6      r6     0.0071
   1117 C          -12.7772     0.3586     1.8326 C       6      r6    -0.0010
   1118 C          -12.6410     4.0400     2.9767 C       6      r6    -0.0498
   1119 C          -10.6326     2.1340     0.1390 C       0      r0    -0.0033
   1120 C          -10.1897     3.2920     0.8274 C       6      r6    -0.0022
   1121 C           -9.9103     2.4182     4.0984 C       6      r6    -0.0008
   1122 C           -9.4915     0.7796     2.3926 C       6      r6    -0.0018
   1123 C           -9.3962     2.1942     2.7828 C       6      r6    -0.0028
   1124 C           -9.2544     3.4221     2.0051 C       6      r6    -0.0038
   1125 C           -7.0420     0.5028     1.5306 C       0      r0    -0.0006
   1126 C           -6.5096     1.5355     3.8664 C       7      r7    -0.0017
   1127 C           -6.5108     1.5990     2.3129 C       0      r0    -0.0033
   1128 C           -5.3320     2.2322     2.1095 C       0      r0    -0.0004
   1129 C           -4.2087     2.8106     2.0211 C       0      r0     0.0038
   1130 C           -3.5927     0.6771     0.4380 C       6      r6    -0.0566
   1131 C           -2.9378     3.3632     2.2464 C       0      r0     0.0088
   1132 C           -2.3102     0.6581     0.9498 C       6      r6     0.2313
   1133 C           -2.3938     3.0862     3.6686 C       0      r0     0.0002
   1134 C           -2.0157     3.8575     1.2806 C       5      r5     0.0393
   1135 O           -1.1641     1.5870     0.4667 O       6      r6    -0.5170
   1136 C           -1.2691     2.2336     3.7747 C       0      r0     0.0166
   1137 C           -0.6614     4.3228     1.4872 C       5      r5     0.0160
   1138 C           -0.1457     1.4549     3.8644 C       0      r0     0.0135
   1139 C           -0.0080     4.2811     0.2139 C       5      r5     0.0218
   1140 C           -0.0505     0.0061     3.4744 C       0      r0    -0.0021
   1141 C            1.1402     4.2645     3.1946 C       7      r7     0.0048
   1142 C            1.1234     0.2465     0.2874 C       6      r6     0.0432
   1143 C            2.3118     3.8457     2.3487 C       7      r7    -0.0013
   1144 C            2.2593     0.9190     0.9351 C       0      r0     0.0046
   1145 C            2.1931     3.4898     0.9047 C       7      r7     0.0102
   1146 C            2.8649     2.2614     0.4711 C       0      r0     0.0036
   1147 C            2.8902     0.1127     1.9331 C       0      r0    -0.0011
   1148 C            3.3436     3.4817     3.3019 C       7      r7    -0.0030
   1149 C            3.4398     2.0347     3.5646 C       7      r7     0.0006
   1150 C            3.8662     0.8458     2.7640 C       0      r0     0.0003
   1151 C            5.1779     1.2061     2.2419 C       0      r0    -0.0005
   1152 C            5.8230     2.3172     2.7691 C       0      r0    -0.0035
   1153 C            5.7398     0.5261     0.8719 C       6      r6    -0.0033
   1154 C            6.4808     3.3480     3.0045 C       0      r0    -0.0066
   1155 C            7.2080     2.7351     0.3547 C       6      r6     0.0088
   1156 C            7.0160     1.2724     0.3288 C       6      r6     0.0088
   1157 C            8.3393     3.3229     1.1031 C       6      r6    -0.0014
   1158 C            9.4801     2.5449     1.1442 C       6      r6     0.0011
   1159 C            9.5392     1.2719     0.3367 C       6      r6     0.0055
   1160 C            9.9510     0.3325     4.0084 C       5      r5    -0.0001
   1161 C           10.6058     4.3663     2.6391 C       6      r6    -0.0028
   1162 C           10.6262     3.0393     1.9516 C       6      r6    -0.0001
   1163 C           10.7452     0.5212     0.4747 C       6      r6    -0.0008
   1164 C           11.0904     4.3948     3.9879 C       6      r6     0.0016
   1165 C           11.3918     0.6794     1.7739 C       6      r6    -0.0010
   1166 C           11.6402     2.0676     2.2550 C       6      r6    -0.0003
   1167 C           12.5748     2.4842     3.3809 C       6      r6    -0.0017
   1168 C           13.5452     2.1442    -0.0188 C       6      r6    -0.0001
   1169 C           13.6948     1.6060     3.7527 C       7      r7    -0.0001
   1170 C          -13.8835     4.4767     0.4299 C       6      r6     0.0112
   1171 C          -13.8527     5.5601     1.6703 C       6      r6    -0.0641
   1172 C          -13.5444     7.7628     3.5364 C       6      r6     0.2476
   1173 C          -13.1941     5.3742     2.8575 C       6      r6     0.2415
   1174 O          -13.0501     6.4122     3.9896 O       6      r6    -0.5082
   1175 H          -11.7506     7.4009     1.4699 H       0      r0     0.0441
   1176 C          -10.9364     7.8661     2.0699 C       5      r5     0.0230
   1177 C          -10.6258     4.5633     0.2197 C       6      r6    -0.0030
   1178 C           -9.7768     7.2541     2.4084 C       5      r5     0.0138
   1179 C           -9.6695     5.6255     0.4664 C       6      r6     0.0118
   1180 C           -9.3509     5.9639     1.8774 C       6      r6     0.0034
   1181 C           -8.8593     8.2105     3.3627 C       5      r5    -0.0006
   1182 C           -8.8807     4.7329     2.5582 C       6      r6    -0.0005
   1183 C           -7.7992     4.8406     3.5935 C       0      r0    -0.0012
   1184 C           -7.4401     8.2937     2.7653 C       7      r7    -0.0011
   1185 C           -7.0498     6.0078     4.0311 C       6      r6    -0.0032
   1186 C           -6.6257     7.2516     3.2772 C       6      r6     0.0052
   1187 C           -5.1784     7.4169     3.2478 C       6      r6     0.0174
   1188 C           -4.4597     8.6293     2.8895 C       6      r6     0.0206
   1189 C           -4.3180     6.4628     3.9842 C       6      r6    -0.0029
   1190 C           -3.0965     8.3405     3.2713 C       6      r6     0.0034
   1191 C           -2.9484     6.9612     3.9721 C       5      r5     0.0033
   1192 C           -1.7560     6.1246     4.1417 C       7      r7    -0.0003
   1193 C           -0.7182     6.2070     3.0904 C       0      r0    -0.0025
   1194 C           -0.4418     7.3332     2.2080 C       5      r5     0.0027
   1195 C            0.0057     5.0115     2.6418 C       7      r7    -0.0050
   1196 C           -0.2040     7.4103     0.7850 C       5      r5    -0.0030
   1197 C            0.6933     8.5757     0.5941 C       5      r5     0.0020
   1198 C            1.4305     4.3855     0.0245 C       7      r7    -0.0049
   1199 C            2.1547     8.3518     0.9591 C       6      r6    -0.0028
   1200 C            2.9596     7.3481     0.3245 C       6      r6    -0.0033
   1201 C            3.0921     7.0318     4.1304 C       6      r6     0.0023
   1202 C            3.5581     7.7045     2.8331 C       6      r6     0.0154
   1203 C            4.3963     7.3551     0.5889 C       6      r6    -0.0032
   1204 C            4.6124     7.1234     2.0615 C       6      r6     0.0041
   1205 C            5.9746     6.8458     2.5082 C       6      r6     0.0074
   1206 C            6.4291     6.8773     3.9141 C       6      r6     0.0285
   1207 C            6.7000     7.9418     0.4325 C       6      r6     0.0059
   1208 C            6.8317     6.7886     1.3385 C       6      r6    -0.0006
   1209 C            7.2177     4.4862     3.1753 C       7      r7    -0.0018
   1210 C            7.5963     5.6814     0.7116 C       6      r6    -0.0061
   1211 C            8.1764     4.6357     1.9084 C       6      r6    -0.0024
   1212 C            8.8506     6.3571     0.1950 C       6      r6     0.0001
   1213 C            9.3215     7.3661     1.1554 C       6      r6    -0.0038
   1214 C            9.4590     5.2761     2.3357 C       6      r6    -0.0021
   1215 C            9.5372     6.7512     2.4446 C       6      r6     0.0002
   1216 C            9.9407     7.2906     3.7970 C       6      r6     0.0017
   1217 C           10.3396     8.6165     3.9718 C       6      r6     0.0041
   1218 C           12.5999     6.7857     0.2116 C       6      r6    -0.0043
   1219 C           13.4647     6.8424     1.3899 C       6      r6     0.0407
   1220 C           13.9483     7.9784     2.2037 C       6      r6    -0.0586
   1221 C          -13.7434    11.6111     3.1644 C       6      r6     0.0015
   1222 C          -13.3436    10.1245     3.1161 C       6      r6    -0.0017
   1223 C          -12.7875    12.7691     3.2947 C       6      r6     0.0001
   1224 C          -11.8468    10.2746     2.9237 C       6      r6     0.0067
   1225 C          -11.5960    12.5921     4.0574 C       6      r6    -0.0002
   1226 C          -11.0765    11.3421     3.5351 C       6      r6     0.0004
   1227 C          -10.9380     9.1468     2.7382 C       5      r5     0.0182
   1228 C          -10.0768    11.9176     0.1174 C       6      r6    -0.0536
   1229 C           -9.6072    10.8843     3.6680 C       5      r5    -0.0004
   1230 C           -9.5953     9.5451     3.1255 C       5      r5    -0.0017
   1231 C           -9.0227     9.9252     0.2769 C       5      r5     0.2141
   1232 C           -8.8456    11.2895     0.5190 C       6      r6    -0.0422
   1233 C           -7.8670     9.1067     0.3448 C       7      r7    -0.0394
   1234 C           -7.5894    12.0634     0.5823 C       6      r6     0.0052
   1235 C           -7.0351     9.1604     1.5980 C       7      r7     0.0295
   1236 C           -6.2082    11.3469     0.5144 C       6      r6    -0.0034
   1237 C           -5.9552    10.0879     1.5675 C       6      r6     0.0144
   1238 C           -5.3504    12.5450     0.9322 C       6      r6    -0.0024
   1239 C           -4.7402     9.9564     2.2500 C       6      r6     0.0101
   1240 C           -3.8146    12.3685     1.1993 C       6      r6     0.0005
   1241 C           -3.6912    11.0089     2.0579 C       6      r6     0.0025
   1242 C           -2.3954    10.8158     2.4055 C       6      r6     0.0020
   1243 C           -2.2217     9.4603     3.1486 C       6      r6     0.0023
   1244 C           -1.1833    11.6352     1.9710 C       5      r5     0.0001
   1245 C           -1.0483    13.0042     1.7655 C       5      r5    -0.0018
   1246 C           -0.9741     9.1555     3.8275 C       7      r7    -0.0025
   1247 C           -0.1161     8.6870     2.7434 C       5      r5    -0.0043
   1248 C           -0.0559    10.9794     1.2837 C       5      r5     0.0008
   1249 C            0.2556     9.5595     1.5757 C       5      r5    -0.0002
   1250 C            0.5711    11.9652     0.3606 C       5      r5    -0.0016
   1251 C            1.6262    12.2575     3.7784 C       6      r6     0.0000
   1252 C            2.3738    11.3279     2.9900 C       6      r6     0.0029
   1253 C            2.3217     9.8399     3.1745 C       6      r6     0.0101
   1254 C            2.6842     8.7119     2.2643 C       6      r6     0.0041
   1255 C            3.5310    11.8600     2.2938 C       6      r6     0.0231
   1256 C            4.2285    11.3672     1.1079 C       7      r7     0.0218
   1257 C            5.4478    12.0824     0.8017 C       6      r6     0.0019
   1258 C            6.2086    12.9479     3.0562 C       6      r6    -0.0495
   1259 O            6.0748    10.4058     3.8143 O       6      r6    -0.5031
   1260 C            6.5404    12.3691     1.6802 C       6      r6     0.0270
   1261 C            6.4921    11.8090     3.9984 C       6      r6     0.2556
   1262 C            7.1561    10.3768     0.1414 C       6      r6     0.0098
   1263 C            7.5580    11.5526     1.0524 C       6      r6     0.0132
   1264 C            7.6786     9.0577     0.3991 C       6      r6     0.0073
   1265 C            8.8297    12.1773     0.6794 C       6      r6    -0.0022
   1266 C            8.9379     8.8351     1.0588 C       7      r7     0.0045
   1267 C            9.7742     9.9084     1.5718 C       6      r6     0.0025
   1268 C            9.9173    11.2694     1.0242 C       6      r6     0.0008
   1269 C           10.4634     9.6751     2.8282 C       6      r6     0.0024
   1270 C           11.1189    12.0086     1.1548 C       6      r6    -0.0018
   1271 C           11.3721    10.7395     3.0941 C       6      r6    -0.0029
   1272 C           12.1878    11.2951     1.7776 C       6      r6    -0.0031
   1273 C           12.9195     9.9830     1.0330 C       6      r6     0.0016
   1274 C           13.2632    12.1125     2.3383 C       6      r6    -0.0022
   1275 C           13.8755     9.4053     1.9022 C       6      r6     0.0153
   1276 C          -13.7404   -10.2821     4.2010 C       6      r6     0.0013
   1277 C          -13.0719    -8.9850     7.9570 C       6      r6    -0.0001
   1278 C          -12.3563   -10.2870     4.4119 C       6      r6     0.0000
   1279 C          -11.6973    -9.4191     7.6516 C       0      r0    -0.0001
   1280 C          -11.7132   -11.0311     5.4675 C       5      r5     0.0002
   1281 C          -11.3695   -10.6392     6.7201 C       5      r5     0.0012
   1282 C          -10.9405   -12.4242     4.9366 C       5      r5    -0.0009
   1283 C          -10.6270   -11.8287     7.3376 C       6      r6     0.0016
   1284 C          -10.6083   -12.9021     6.3685 C       6      r6     0.0005
   1285 C          -10.5080    -8.9050     8.3080 C       5      r5     0.0005
   1286 C           -9.9155    -8.6752     5.0381 C       6      r6     0.0003
   1287 C           -7.3519   -12.2800     4.5528 C       6      r6    -0.0018
   1288 C           -6.1479   -12.3012     5.3846 C       6      r6     0.0000
   1289 C           -5.8984   -10.9409     5.8440 C       6      r6     0.0022
   1290 C           -5.7694    -9.7911     5.0179 C       6      r6     0.0011
   1291 C           -5.0511   -10.9396     7.0472 C       6      r6     0.0011
   1292 C           -4.8462   -13.0246     5.2974 C       7      r7    -0.0016
   1293 C           -4.8845   -11.9508     8.1075 C       6      r6     0.0007
   1294 C           -4.6073    -9.1318     5.5623 C       5      r5    -0.0002
   1295 C           -4.1267    -9.8540     6.7725 C       6      r6     0.0009
   1296 C           -3.7648   -12.6596     4.3585 C       7      r7     0.0001
   1297 C           -2.8995    -9.6595     7.5240 C       6      r6    -0.0003
   1298 C           -2.3067   -12.9711     4.6416 C       7      r7     0.0002
   1299 C           -1.4797    -9.9225     7.1278 C       6      r6    -0.0000
   1300 C           -1.3247   -11.9803     4.3309 C       6      r6     0.0006
   1301 C           -1.1731    -8.9797     4.7582 C       6      r6    -0.0006
   1302 C           -1.0673   -10.0601     5.7586 C       6      r6     0.0002
   1303 C           -0.4899   -10.3772     8.1224 C       6      r6    -0.0021
   1304 C           -0.2313   -11.2509     5.3647 C       6      r6     0.0009
   1305 C           -0.0018   -11.7249     7.9019 C       6      r6    -0.0020
   1306 C            0.1612   -12.1889     6.5350 C       6      r6    -0.0023
   1307 C            1.0778   -10.4948     4.8342 C       5      r5    -0.0015
   1308 C            1.8250    -9.4146     5.3760 C       6      r6    -0.0022
   1309 C            2.0225   -11.2298     4.0238 C       5      r5     0.0000
   1310 C            3.2703    -9.5367     4.9154 C       6      r6    -0.0025
   1311 C            3.3604   -10.6457     4.1159 C       5      r5    -0.0008
   1312 C            4.3271    -8.6426     5.5494 C       6      r6    -0.0025
   1313 C            6.5530   -12.2454     8.2739 C       6      r6    -0.0039
   1314 C            6.4755    -9.4245     4.3124 C       7      r7    -0.0031
   1315 H            6.4230   -11.0599     6.5153 H       0      r0     0.0215
   1316 C            6.9857   -11.0088     7.4931 C       6      r6    -0.0201
   1317 C            7.9181    -9.1460     4.3526 C       7      r7     0.0003
   1318 C            8.1736   -12.7721     5.3079 C       6      r6     0.0101
   1319 C            8.3671   -11.9276     4.2388 C       6      r6    -0.0074
   1320 C            8.5005   -10.9553     7.1480 C       6      r6    -0.0008
   1321 C            8.3845    -8.7378     5.7387 C       7      r7     0.0005
   1322 C            9.0408    -9.6857     6.5896 C       6      r6    -0.0011
   1323 C            9.2230   -13.0317     6.4690 C       6      r6    -0.0032
   1324 C            9.5384   -11.9185     7.4306 C       6      r6    -0.0045
   1325 C           10.2601    -9.3327     7.4328 C       6      r6     0.0013
   1326 C           10.8992   -11.7571     8.0385 C       6      r6    -0.0021
   1327 C           10.9907   -12.0949     4.3597 C       5      r5    -0.0015
   1328 C           11.2253   -10.3323     7.9527 C       6      r6     0.0000
   1329 C           13.3086   -12.3777     7.5284 C       0      r0     0.0000
   1330 C           13.3507   -11.7656     6.3177 C       0      r0    -0.0009
   1331 C           13.2167   -11.0989     5.1522 C       6      r6     0.0010
   1332 C          -13.8265    -6.7874     5.2769 C       6      r6    -0.0001
   1333 C          -13.6123    -7.6260     7.6008 C       6      r6     0.0001
   1334 C          -13.1404    -4.5739     8.1913 C       6      r6     0.0003
   1335 C          -13.0051    -6.9599     6.4607 C       6      r6     0.0003
   1336 C          -11.5745    -6.8778     6.1129 C       6      r6     0.0003
   1337 C          -11.1615    -7.7774     4.9954 C       6      r6    -0.0009
   1338 C          -10.7023    -4.3870     6.1659 C       6      r6    -0.0003
   1339 C          -10.4738    -6.5831     7.0429 C       6      r6     0.0015
   1340 C          -10.2243    -5.2052     7.3294 C       7      r7    -0.0025
   1341 C           -9.9959    -4.7070     4.9290 C       6      r6     0.0002
   1342 C           -9.6059    -7.8901     7.4792 C       6      r6     0.0003
   1343 C           -9.0143    -8.3733     6.1704 C       6      r6    -0.0002
   1344 C           -8.6070    -5.2279     4.7789 C       6      r6    -0.0009
   1345 C           -8.3746    -7.6360     8.3787 C       6      r6     0.0004
   1346 C           -7.8453    -7.7244     5.6935 C       6      r6     0.0002
   1347 H           -7.7042    -4.5426     7.4984 H       0      r0     0.0243
   1348 C           -7.5379    -4.2428     4.6698 C       7      r7     0.0018
   1349 C           -7.3302    -6.8595     7.9077 C       6      r6    -0.0016
   1350 C           -6.9914    -6.9019     6.5068 C       6      r6     0.0002
   1351 C           -5.7768    -6.2474     6.0254 C       6      r6    -0.0006
   1352 C           -5.6817    -5.8140     4.5806 C       6      r6     0.0006
   1353 C           -4.8767    -6.5727     8.3914 C       6      r6    -0.0007
   1354 C           -4.6986    -6.5982     6.9223 C       6      r6     0.0007
   1355 C           -3.7454    -8.0581     5.1210 C       7      r7    -0.0006
   1356 C           -3.4750    -7.0194     6.1406 C       7      r7    -0.0012
   1357 C           -2.3898    -6.0987     6.2005 C       7      r7     0.0003
   1358 C           -2.2216    -5.3310     7.4411 C       7      r7    -0.0010
   1359 C           -1.6382    -5.4070     5.1157 C       7      r7     0.0011
   1360 C           -1.1333    -5.9935     8.1182 C       7      r7     0.0114
   1361 C           -0.7794    -6.3453     4.3581 C       7      r7     0.0021
   1362 C           -0.5781    -7.6357     5.0879 C       0      r0    -0.0006
   1363 C           -0.2696    -7.1145     7.6625 C       6      r6     0.0046
   1364 C            0.1783    -7.5919     6.3279 C       6      r6     0.0036
   1365 C            1.4878    -8.2901     6.2758 C       6      r6     0.0014
   1366 O            1.8109    -4.3517     8.4586 O       7      r7    -0.5239
   1367 C            2.1023    -7.2196     8.2948 C       6      r6     0.0119
   1368 C            2.6364    -7.8833     7.0740 C       6      r6    -0.0007
   1369 C            3.2588    -4.6340     8.1822 C       6      r6     0.2747
   1370 C            4.0554    -8.0810     6.8099 C       6      r6    -0.0010
   1371 C            5.2201    -6.2728     8.3794 C       6      r6     0.0140
   1372 C            5.1213    -7.7404     7.9416 C       6      r6    -0.0013
   1373 C            5.5353    -8.3465     4.7717 C       7      r7    -0.0007
   1374 C            6.0130    -6.9510     4.6397 C       7      r7    -0.0007
   1375 C            6.1771    -5.4163     7.7939 C       6      r6    -0.0077
   1376 C            6.6186    -8.2807     8.0164 C       6      r6    -0.0012
   1377 C            7.4281    -6.6526     4.7269 C       6      r6    -0.0012
   1378 C            7.5245    -5.8684     7.9106 C       6      r6     0.0008
   1379 C            7.5593    -7.2692     8.4412 C       6      r6     0.0017
   1380 C            8.3724    -7.2546     5.6898 C       6      r6     0.0004
   1381 C            8.7184    -5.0211     8.2383 C       0      r0    -0.0020
   1382 C            9.7131    -6.6681     5.6787 C       6      r6     0.0012
   1383 C           10.0019    -5.5187     7.9997 C       5      r5    -0.0008
   1384 C           10.3522    -6.1675     4.5367 C       6      r6     0.0008
   1385 C           10.5384    -6.6619     7.0392 C       6      r6     0.0013
   1386 C           10.7252    -8.0256     7.7178 C       5      r5     0.0025
   1387 C           11.8692    -6.2035     4.4362 C       6      r6    -0.0005
   1388 C           12.0198    -8.2524     8.3157 C       6      r6    -0.0009
   1389 C           12.1665    -6.3005     6.9248 C       6      r6     0.0004
   1390 C           12.3424    -4.8047     7.6214 C       6      r6     0.0010
   1391 C           12.7330    -6.4192     5.5238 C       6      r6    -0.0001
   1392 C           12.9565    -7.2499     7.7628 C       6      r6    -0.0007
   1393 C          -13.9410    -1.4969     7.2549 C       6      r6    -0.0009
   1394 C          -13.8080    -0.7980     5.7151 C       6      r6    -0.0017
   1395 C          -13.1465    -3.7743     6.9195 C       6      r6     0.0003
   1396 C          -12.4772    -1.3993     5.1536 C       7      r7    -0.0013
   1397 C          -12.4914    -1.4764     8.2855 C       6      r6    -0.0008
   1398 C          -12.2017    -2.8237     4.8409 C       6      r6     0.0006
   1399 C          -11.9774    -3.7151     6.0457 C       6      r6     0.0004
   1400 C          -11.1625    -0.9041     5.4901 C       7      r7    -0.0008
   1401 C          -11.0632    -1.8684     7.8409 C       7      r7    -0.0003
   1402 C          -10.4431    -1.3477     6.6668 C       7      r7    -0.0004
   1403 C           -8.9300    -1.3641     6.5852 C       7      r7    -0.0012
   1404 C           -8.1540    -2.6421     6.3289 C       0      r0     0.0025
   1405 C           -8.1224    -0.2766     6.2363 C       6      r6    -0.0006
   1406 C           -7.7355    -2.8017     4.9207 C       7      r7     0.0004
   1407 C           -7.3656    -3.5578     7.2108 C       0      r0    -0.0190
   1408 C           -6.6241    -0.2269     5.9197 C       6      r6    -0.0002
   1409 C           -6.1498    -2.8698     7.7178 C       0      r0     0.0023
   1410 C           -5.5582    -1.4989     5.8326 C       6      r6    -0.0011
   1411 C           -5.1028    -2.4945     6.7246 C       6      r6    -0.0022
   1412 C           -4.7251    -1.5492     4.6885 C       6      r6    -0.0008
   1413 C           -3.8700    -3.4254     6.7212 C       6      r6    -0.0004
   1414 C           -3.4386    -2.2875     4.5561 C       6      r6    -0.0006
   1415 C           -3.1540    -3.4284     5.4646 C       6      r6     0.0002
   1416 C           -2.7944    -3.8858     7.5859 C       7      r7    -0.0014
   1417 C           -1.8737    -1.4491     7.8263 C       7      r7    -0.0025
   1418 C           -1.9949    -4.0672     4.8180 C       5      r5    -0.0007
   1419 C           -1.7504    -2.9071     7.7129 C       7      r7     0.0054
   1420 C           -0.5754    -0.7617     7.6371 C       7      r7    -0.0059
   1421 C            0.3250    -1.2948     6.5652 C       5      r5     0.0075
   1422 C            0.8232    -3.3753     7.8445 C       7      r7     0.2603
   1423 C            1.0918    -0.5140     5.5857 C       5      r5     0.0009
   1424 C            1.1631    -2.3952     6.8795 C       5      r5    -0.0587
   1425 C            2.4943    -2.0922     6.4376 C       6      r6     0.0187
   1426 C            2.5009    -0.8447     5.7861 C       6      r6    -0.0054
   1427 C            3.6641     0.0034     5.9394 C       6      r6    -0.0008
   1428 C            3.6874    -2.6386     6.8360 C       6      r6     0.0258
   1429 C            4.0079    -3.9074     7.3327 C       6      r6    -0.0659
   1430 C            5.0220    -0.5907     6.2400 C       6      r6    -0.0007
   1431 C            4.9412    -1.9362     6.7860 C       6      r6    -0.0052
   1432 C            5.5276    -4.1681     6.9677 C       6      r6     0.0079
   1433 C            5.7419    -4.1133     5.3544 C       6      r6    -0.0010
   1434 C            5.9459    -2.8036     7.3598 C       6      r6     0.0014
   1435 C            6.7016    -3.1021     4.9538 C       6      r6    -0.0005
   1436 C            7.4032    -2.5541     7.2362 C       6      r6    -0.0027
   1437 C            7.5834    -2.3078     5.8302 C       6      r6    -0.0007
   1438 C            8.1792    -0.9881     5.4916 C       7      r7     0.0023
   1439 C            8.3317    -2.5798     8.3976 C       0      r0    -0.0021
   1440 C            9.2798    -1.4171     8.4805 C       0      r0     0.0002
   1441 C           10.4833    -1.4058     7.6192 C       7      r7     0.0024
   1442 C           11.1101    -2.7238     7.6997 C       5      r5     0.0015
   1443 C           11.5906    -0.5217     7.2212 C       6      r6    -0.0014
   1444 C           11.7167    -0.2096     5.7812 C       6      r6    -0.0008
   1445 C           12.2743    -3.4069     7.0439 C       6      r6     0.0009
   1446 C           12.5262    -2.1315     4.2841 C       0      r0     0.0006
   1447 C           12.7511    -0.9691     5.0145 C       6      r6    -0.0019
   1448 C           12.8227    -0.8633     7.9351 C       6      r6    -0.0009
   1449 C           13.6091    -2.8839     6.9127 C       6      r6     0.0003
   1450 C          -13.9550     4.0402     5.7213 C       7      r7     0.0316
   1451 C          -13.6071     0.6832     6.0159 C       6      r6     0.0020
   1452 C          -13.6201     1.7795     5.0551 C       7      r7     0.0005
   1453 C          -13.3466     3.7190     7.8922 C       7      r7     0.0371
   1454 C          -13.1167     1.0018     7.3271 C       6      r6    -0.0041
   1455 C          -12.9591     3.1000     5.1911 C       7      r7    -0.0003
   1456 C          -12.6908     2.3735     7.6421 C       5      r5    -0.0497
   1457 C          -12.3258     0.0272     8.0708 C       6      r6     0.0057
   1458 C          -12.0398     3.7470     4.2624 C       7      r7     0.0477
   1459 C          -11.4240     2.1661     8.1108 C       6      r6     0.2627
   1460 O          -10.4670     3.2784     8.3712 O       6      r6    -0.5351
   1461 C          -10.4060     0.0261     4.5266 C       6      r6    -0.0008
   1462 C          -10.5254     3.6730     4.5852 C       7      r7    -0.0016
   1463 C           -9.7443     1.2361     5.0219 C       6      r6     0.0050
   1464 C           -9.7581     4.3196     5.6378 C       7      r7     0.0421
   1465 C           -8.8642     1.0985     6.1312 C       6      r6     0.0010
   1466 C           -8.4726     3.6123     5.6620 C       7      r7     0.0020
   1467 C           -8.2721     2.3399     6.4776 C       6      r6     0.0288
   1468 C           -7.5662     3.7135     4.5595 C       0      r0    -0.0052
   1469 C           -7.0935     1.9694     7.2624 C       6      r6    -0.0029
   1470 C           -6.6053     0.2614     4.4736 C       6      r6    -0.0005
   1471 C           -6.3359     2.7881     4.5721 C       7      r7    -0.0021
   1472 C           -5.9647     0.9923     6.8337 C       6      r6    -0.0003
   1473 C           -5.4612     4.1535     8.0820 C       6      r6    -0.0012
   1474 C           -5.4339     0.1803     8.0657 C       5      r5    -0.0006
   1475 C           -5.1261     2.9255     5.4245 C       7      r7    -0.0014
   1476 C           -4.8045     1.8197     6.2878 C       5      r5    -0.0006
   1477 C           -4.2246     4.1104     5.0763 C       7      r7    -0.0006
   1478 C           -4.0686     3.7694     8.3734 C       7      r7    -0.0010
   1479 C           -3.9849     0.1757     7.9256 C       5      r5    -0.0028
   1480 C           -3.7524     1.5078     7.2210 C       5      r5    -0.0021
   1481 C           -3.3521     2.4954     8.2445 C       7      r7    -0.0011
   1482 C           -2.7794     3.9758     4.7910 C       7      r7    -0.0007
   1483 C           -0.9646     3.0427     8.3263 C       7      r7     0.0009
   1484 C            0.9088     3.6860     4.5435 C       7      r7     0.0009
   1485 C            1.0731     2.2243     4.4969 C       7      r7     0.0018
   1486 C            2.3941     1.6402     4.5595 C       7      r7     0.0027
   1487 C            3.2345     1.3519     5.7926 C       7      r7     0.0003
   1488 C            3.5045     3.8061     5.9679 C       7      r7    -0.0018
   1489 C            3.9965     2.4632     6.3000 C       7      r7    -0.0024
   1490 C            5.1550     2.4758     7.2084 C       7      r7    -0.0005
   1491 C            5.8583     1.2391     7.5980 C       7      r7     0.0006
   1492 C            5.9455     3.6824     7.2940 C       7      r7    -0.0005
   1493 C            6.2074     0.2475     6.5238 C       7      r7     0.0004
   1494 C            7.3623     3.3291     7.0289 C       7      r7    -0.0019
   1495 C            7.6024     0.1640     6.1827 C       7      r7     0.0015
   1496 C            8.0741     2.2383     7.6307 C       7      r7     0.0006
   1497 C            8.1105     4.1824     6.0908 C       7      r7    -0.0018
   1498 C            8.5416     1.2117     6.6864 C       7      r7     0.0021
   1499 C            9.5221     4.0078     5.8771 C       7      r7    -0.0027
   1500 C            9.9023     1.5024     6.2310 C       7      r7    -0.0015
   1501 C           10.3001     2.8968     6.4460 C       7      r7    -0.0018
   1502 C           10.6677     0.6414     5.2792 C       7      r7    -0.0006
   1503 C           11.6904     3.3052     6.8192 C       7      r7    -0.0001
   1504 C           12.0709     3.5799     8.2189 C       5      r5     0.0009
   1505 C           12.0782     3.3886     4.3654 C       6      r6     0.0042
   1506 C           12.6458     3.5266     5.7501 C       7      r7    -0.0041
   1507 C          -13.2580     6.2546     7.0617 C       7      r7     0.0346
   1508 C          -13.3806     4.7725     6.9096 C       7      r7     0.0130
   1509 C          -11.8860     6.8188     7.2013 C       6      r6     0.0073
   1510 C          -11.6474     8.2544     7.3626 C       6      r6     0.0045
   1511 C          -10.7278     5.9999     7.4833 C       6      r6     0.0481
   1512 C          -10.4693     8.6373     8.0831 C       6      r6     0.0006
   1513 C           -9.9896     5.7617     6.1292 C       0      r0     0.0140
   1514 C           -9.4931     6.8325     5.5152 C       0      r0     0.0052
   1515 C           -9.0063     7.9678     4.9455 C       7      r7     0.0014
   1516 C           -6.3215     6.2835     6.5407 C       0      r0     0.0000
   1517 C           -6.2176     7.7907     6.6134 C       5      r5    -0.0025
   1518 C           -6.2995     5.6579     5.2290 C       6      r6    -0.0026
   1519 C           -5.8971     5.5447     7.7717 C       6      r6     0.0012
   1520 C           -4.9428     8.5223     6.3985 C       5      r5    -0.0023
   1521 C           -4.8979     5.3569     4.7338 C       6      r6    -0.0015
   1522 C           -3.6997     8.1674     7.0898 C       5      r5     0.0022
   1523 C           -3.6358     7.2945     8.2011 C       5      r5     0.0006
   1524 C           -2.4710     8.3954     6.5033 C       6      r6    -0.0007
   1525 C           -2.3815     6.6734     8.0507 C       5      r5     0.0018
   1526 C           -1.8331     5.0376     5.1743 C       7      r7    -0.0001
   1527 C           -1.6547     7.4827     7.1810 C       6      r6    -0.0025
   1528 C           -1.2249     4.3523     7.6114 C       7      r7     0.0016
   1529 C           -0.7996     4.6767     6.2067 C       0      r0    -0.0003
   1530 C           -0.4172     8.0030     7.4224 C       6      r6    -0.0024
   1531 C            0.5561     4.5214     5.7140 C       0      r0    -0.0028
   1532 C            1.2547     7.5664     5.7530 C       6      r6    -0.0050
   1533 C            1.6449     5.1756     6.4975 C       7      r7    -0.0034
   1534 C            1.6490     6.5827     6.7253 C       6      r6     0.0020
   1535 C            1.9297     7.1331     8.1900 C       6      r6     0.0009
   1536 C            2.1790     8.0175     4.8163 C       6      r6     0.0031
   1537 C            2.3755     8.5980     8.3254 C       6      r6     0.0023
   1538 C            2.8219     4.3935     7.0497 C       7      r7    -0.0003
   1539 C            3.2837     5.6946     4.3245 C       0      r0    -0.0031
   1540 C            3.5215     4.3440     4.5294 C       7      r7    -0.0022
   1541 C            5.6648     4.9260     8.0482 C       6      r6    -0.0054
   1542 C            6.7176     5.9478     7.9930 C       6      r6     0.0409
   1543 C            6.4173     7.9867     4.9545 C       6      r6    -0.0702
   1544 C            7.0820     6.3497     6.6334 C       6      r6    -0.0358
   1545 C            6.8932     7.7323     6.2600 C       6      r6     0.2150
   1546 C            6.9720     5.5870     4.2262 C       6      r6    -0.0131
   1547 C            7.3114     5.3386     5.5863 C       6      r6     0.0050
   1548 C            9.8695     6.9347     6.4125 C       6      r6     0.0075
   1549 C            9.8750     6.4275     5.0372 C       6      r6    -0.0011
   1550 C           10.0388     6.0005     7.5890 C       5      r5     0.0015
   1551 C           10.2225     5.0175     5.0432 C       7      r7     0.0003
   1552 C           10.3291     8.2807     6.5649 C       6      r6     0.0124
   1553 C           11.3085     5.8890     8.3084 C       5      r5    -0.0014
   1554 C           12.4542     6.7669     8.2212 C       6      r6    -0.0028
   1555 C           13.4219     8.4345     6.7611 C       6      r6    -0.0030
   1556 C           13.4312     7.0389     7.1457 C       6      r6     0.0091
   1557 C          -13.5086     8.9361     5.8048 C       6      r6     0.0306
   1558 C          -13.5938     8.9779     4.3134 C       5      r5    -0.0485
   1559 C          -12.8798    10.5642     7.5331 C       6      r6    -0.0013
   1560 C          -12.4584     9.3689     6.7677 C       6      r6    -0.0028
   1561 C          -12.3101    12.9362     8.4019 C       6      r6     0.0003
   1562 C          -12.0491    11.7244     7.6338 C       6      r6    -0.0005
   1563 C          -10.7606    11.8678     6.8947 C       6      r6    -0.0001
   1564 C           -9.9454     9.9850     8.1402 C       6      r6     0.0014
   1565 C           -9.7671    10.7594     6.8624 C       0      r0    -0.0011
   1566 C           -8.8492    10.4927     5.8478 C       7      r7    -0.0029
   1567 C           -8.7148    11.4279     4.6967 C       7      r7    -0.0041
   1568 C           -8.5318    12.8794     4.4566 C       5      r5    -0.0014
   1569 C           -8.3519     9.0314     5.7561 C       7      r7    -0.0051
   1570 C           -7.1629     8.8831     6.5476 C       5      r5    -0.0030
   1571 C           -6.4257    10.1009     7.0586 C       5      r5    -0.0027
   1572 C           -5.1656     9.9322     6.3017 C       5      r5    -0.0016
   1573 C           -4.9789    12.7077     7.9044 C       7      r7     0.0015
   1574 C           -4.5677    12.3322     6.5665 C       7      r7     0.0013
   1575 C           -4.1508    10.9856     6.1965 C       7      r7     0.0007
   1576 C           -2.8126    10.7975     5.6664 C       5      r5     0.0002
   1577 C           -2.0648     9.6597     5.8811 C       6      r6    -0.0005
   1578 C           -1.8487    11.8437     5.1897 C       5      r5    -0.0002
   1579 C           -0.7029     9.6977     5.2629 C       6      r6    -0.0041
   1580 C           -0.5389    11.2708     5.2112 C       6      r6    -0.0031
   1581 C            0.2935     8.6949     6.2849 C       6      r6    -0.0034
   1582 C            0.9677    11.7604     5.1653 C       6      r6    -0.0009
   1583 C            0.8045    12.6943     6.4808 C       5      r5     0.0002
   1584 C            1.0926    12.2598     7.8365 C       5      r5     0.0002
   1585 C            1.1545     9.7186     6.5697 C       6      r6    -0.0021
   1586 C            1.6316    10.4438     5.5099 C       6      r6     0.0063
   1587 C            2.1751     9.5000     4.5609 C       6      r6     0.0113
   1588 C            1.6711    11.0614     8.3883 C       6      r6    -0.0001
   1589 C            1.8136     9.7753     7.7224 C       6      r6     0.0094
   1590 C            6.4540     9.4728     4.9548 C       6      r6     0.2176
   1591 C            7.1561    12.6520     8.1591 C       6      r6     0.0132
   1592 C            6.9830     9.9673     6.1630 C       6      r6     0.1626
   1593 O            7.0850     8.8929     7.2689 O       5      r5    -0.4625
   1594 C            7.3030    12.1240     5.1035 C       6      r6    -0.0560
   1595 C            7.5769    11.2131     6.2042 C       6      r6     0.0012
   1596 C            8.2916    11.9689     7.3324 C       6      r6     0.0047
   1597 C            8.8984    10.9404     8.1011 C       6      r6     0.0132
   1598 C           10.2192    10.4070     7.7831 C       6      r6     0.0009
   1599 C           10.5234    12.3664     6.0859 C       6      r6    -0.0015
   1600 C           10.5603     8.9704     7.9131 C       6      r6     0.0098
   1601 C           10.8958    11.0800     6.6508 C       6      r6    -0.0036
   1602 C           10.7553     9.0007     5.3150 C       6      r6    -0.0007
   1603 C           11.1562    12.6124     4.8696 C       5      r5    -0.0018
   1604 C           11.4330    10.2619     5.5593 C       6      r6    -0.0012
   1605 C           11.5728    11.2116     4.4589 C       6      r6    -0.0008
   1606 C           13.3366     9.2765     7.9935 C       6      r6    -0.0031
   1607 C           13.6883    10.6950     8.0202 C       6      r6    -0.0015
   1608 C          -13.4794   -11.0288     9.1676 C       7      r7     0.0015
   1609 C          -13.4657   -12.3014     8.4774 C       7      r7     0.0014
   1610 C          -13.3068   -10.3510    11.6553 C       5      r5    -0.0020
   1611 C          -12.6702   -10.5298    10.2891 C       7      r7    -0.0003
   1612 C          -12.5478    -9.7341   -12.5331 C       5      r5    -0.0005
   1613 C          -11.2132   -10.6971    10.4501 C       7      r7    -0.0022
   1614 C          -11.0388   -12.4524     8.6217 C       6      r6     0.0016
   1615 C          -10.6551   -12.1085    10.0244 C       7      r7    -0.0000
   1616 C          -10.3640    -9.5471    10.8094 C       6      r6    -0.0007
   1617 C           -9.8454    -8.9508     9.5962 C       6      r6     0.0006
   1618 C           -9.8471    -9.1650    12.2387 C       6      r6     0.0001
   1619 C           -9.8530   -12.9560    10.6924 C       0      r0    -0.0016
   1620 C           -8.1809    -8.8852    12.1401 C       6      r6    -0.0004
   1621 C           -7.7510   -10.3036    12.5723 C       6      r6     0.0071
   1622 C           -7.6000    -8.7844    10.7414 C       6      r6    -0.0005
   1623 C           -6.6874   -11.0506    12.0135 C       6      r6     0.0001
   1624 C           -6.1599    -9.0377    10.5643 C       6      r6     0.0013
   1625 C           -5.6934   -10.4038    11.0689 C       6      r6    -0.0002
   1626 C           -4.5615   -11.1707    10.5794 C       6      r6     0.0002
   1627 C           -4.2172   -11.1361     9.1793 C       6      r6    -0.0001
   1628 C           -3.1554   -11.1999    11.3265 C       6      r6    -0.0003
   1629 C           -3.2814   -10.0537     8.8803 C       6      r6    -0.0010
   1630 C           -2.9191    -9.7307    11.2555 C       6      r6    -0.0015
   1631 C           -2.8149    -9.1173     9.9306 C       6      r6    -0.0009
   1632 C           -2.6172    -8.9267    12.3900 C       6      r6    -0.0010
   1633 C           -2.1149   -12.0928    10.5856 C       6      r6    -0.0016
   1634 C           -0.5814   -11.7696    10.8618 C       6      r6    -0.0019
   1635 C           -0.3538   -10.3455    10.6135 C       5      r5    -0.0012
   1636 C           -0.2222    -9.6837     9.3896 C       5      r5    -0.0010
   1637 C           -0.1768   -11.9507    12.3331 C       6      r6    -0.0033
   1638 C            0.4163   -12.8303    10.1620 C       5      r5    -0.0010
   1639 C            0.5042    -9.7214    11.4820 C       5      r5    -0.0021
   1640 C            0.5671   -12.8057     8.7534 C       5      r5    -0.0041
   1641 C            1.3068    -8.6187    10.9418 C       5      r5     0.0111
   1642 C            2.7833    -8.6504    11.0156 C       7      r7     0.0175
   1643 C            3.6770    -9.5516    11.8017 C       6      r6     0.0015
   1644 C            4.4040   -10.7336    11.2682 C       6      r6    -0.0045
   1645 C            4.8758   -10.9290     9.9532 C       6      r6    -0.0046
   1646 C            4.9106   -11.8207    12.2525 C       6      r6    -0.0030
   1647 C            5.2266    -9.7530     9.1846 C       6      r6    -0.0051
   1648 C            5.7667   -12.2314     9.5729 C       6      r6     0.0015
   1649 C            6.3580   -12.2067    11.8929 C       6      r6     0.0030
   1650 C            6.6628    -9.6645     8.5613 C       6      r6    -0.0025
   1651 C            6.9124   -11.9997    10.5774 C       6      r6    -0.0047
   1652 C            7.7725    -9.8407     9.6679 C       6      r6    -0.0028
   1653 C            8.0063   -10.9940    10.4492 C       5      r5    -0.0019
   1654 C            9.1509   -10.7042    11.3761 C       6      r6    -0.0000
   1655 C            9.5561    -9.3715    11.0862 C       6      r6     0.0007
   1656 C           10.0150   -11.4756    12.2213 C       6      r6    -0.0284
   1657 C           10.8243    -8.7907    11.5829 C       6      r6     0.0027
   1658 C           11.4004   -11.0700    12.2540 C       6      r6     0.0363
   1659 C           11.6324    -9.5978    12.4447 C       6      r6    -0.0045
   1660 C           12.0713   -12.6205     8.3825 C       0      r0    -0.0011
   1661 C           12.4327    -9.6373     8.4761 C       6      r6     0.0013
   1662 C           12.4752   -11.8817    11.6226 C       0      r0     0.0063
   1663 C           13.7575   -11.3260    12.2512 C       5      r5     0.0005
   1664 C           13.8700    -9.8453     8.5421 C       6      r6    -0.0004
   1665 C          -13.1325    -7.3760    12.5626 C       5      r5    -0.0011
   1666 C          -12.8426    -6.4507    11.4697 C       5      r5     0.0017
   1667 C          -12.0425    -5.2226    11.4918 C       5      r5     0.0010
   1668 C          -11.9136    -4.7666     9.0331 C       7      r7     0.0005
   1669 C          -10.6628    -7.9494   -12.5329 C       6      r6    -0.0007
   1670 C          -10.4842    -4.6746     8.7227 C       7      r7    -0.0008
   1671 C           -8.4453    -8.3977     9.5962 C       6      r6    -0.0005
   1672 C           -7.7822    -7.4737   -12.3990 C       6      r6     0.0006
   1673 C           -7.5079    -4.7291    10.5436 C       0      r0     0.0015
   1674 C           -6.7557    -4.3941    11.7617 C       7      r7    -0.0049
   1675 C           -6.6577    -5.8852    10.1064 C       6      r6    -0.0014
   1676 C           -6.4326    -6.9966    12.5301 C       7      r7    -0.0002
   1677 C           -6.2506    -6.2721     8.7512 C       6      r6    -0.0021
   1678 C           -6.0302    -6.7254    11.1182 C       6      r6    -0.0018
   1679 C           -5.3158    -7.8149    10.4835 C       6      r6    -0.0016
   1680 C           -4.1988    -4.8803    12.2907 C       6      r6    -0.0031
   1681 C           -4.2755    -7.2832     9.5386 C       6      r6    -0.0028
   1682 C           -2.8823    -7.6872     9.8471 C       6      r6    -0.0013
   1683 C           -2.0123    -7.0410    10.9215 C       6      r6    -0.0022
   1684 C           -2.0320    -7.6488    12.2004 C       6      r6    -0.0007
   1685 C           -0.9350    -6.1148    10.7770 C       6      r6     0.0037
   1686 C           -0.8300    -5.4492     9.4783 C       7      r7     0.0160
   1687 C           -0.0404    -5.8447    11.8950 C       6      r6     0.0057
   1688 C            0.5236    -8.4669     9.7168 C       5      r5    -0.0055
   1689 C            0.7368    -7.3994     8.7061 C       6      r6     0.0231
   1690 C            0.9126    -4.8121    12.2226 C       5      r5     0.0595
   1691 C            2.9984    -6.7519     9.3583 C       6      r6     0.0727
   1692 C            3.5455    -7.9683     9.9793 C       6      r6     0.0005
   1693 O            3.3890    -5.4405    12.2468 O       6      r6    -0.5113
   1694 C            3.8679    -5.7454     8.7268 C       6      r6    -0.0575
   1695 C            4.1624    -4.4215    11.5010 C       6      r6     0.2616
   1696 C            4.6616    -8.5000     9.2085 C       6      r6     0.0017
   1697 C            5.5251    -4.2667    11.7985 C       6      r6    -0.0617
   1698 C            8.5209    -5.2582    10.9990 C       0      r0     0.0007
   1699 C            8.6338    -8.7892    10.0715 C       6      r6    -0.0006
   1700 C            8.6031    -7.4356     9.5150 C       6      r6    -0.0004
   1701 C            8.8738    -5.4686    12.3869 C       0      r0    -0.0025
   1702 C            9.2813    -6.3877    10.2829 C       7      r7    -0.0018
   1703 C           10.7490    -6.4045    10.5592 C       6      r6    -0.0012
   1704 C           11.0630    -4.7258     8.7233 C       5      r5     0.0015
   1705 C           11.3906    -7.5235    11.1060 C       6      r6    -0.0005
   1706 C           11.6136    -5.1448    10.3264 C       6      r6     0.0002
   1707 C           12.8078    -7.1956    11.4920 C       6      r6     0.0008
   1708 C           13.0797    -5.4193     9.9194 C       6      r6     0.0010
   1709 C           13.3818    -7.7311   -12.5663 C       6      r6    -0.0012
   1710 C           13.4991    -4.9087     8.6022 C       6      r6     0.0005
   1711 C           13.7598    -6.3570    10.7754 C       6      r6     0.0002
   1712 C          -12.8130    -0.4608    10.4980 C       6      r6     0.0009
   1713 C          -12.7040    -3.0804    12.2421 C       5      r5    -0.0002
   1714 C          -12.5541    -1.7106     9.8564 C       7      r7    -0.0002
   1715 C          -12.5464    -2.8845    10.7604 C       5      r5    -0.0017
   1716 C          -12.1054    -4.2367    10.3929 C       5      r5    -0.0000
   1717 C          -10.1397    -2.1805     8.9264 C       6      r6     0.0008
   1718 C           -9.6738    -3.5598     9.2981 C       6      r6    -0.0023
   1719 C           -9.5386    -0.9650     9.4501 C       6      r6    -0.0062
   1720 C           -8.1854    -1.1714     9.9237 C       6      r6     0.0115
   1721 C           -8.3446    -3.6770     9.8825 C       6      r6    -0.0006
   1722 C           -7.5026    -2.4386     9.7910 C       6      r6    -0.0022
   1723 C           -6.4056    -2.0670     8.9124 C       5      r5    -0.0015
   1724 C           -6.0750    -0.6409     9.0569 C       5      r5     0.0003
   1725 C           -5.4745    -1.8190    11.8628 C       6      r6    -0.0403
   1726 C           -5.2801    -4.2497    11.5341 C       6      r6    -0.0048
   1727 C           -4.9108    -0.5513    11.6710 C       6      r6    -0.0411
   1728 C           -4.9262    -2.9193    11.0718 C       6      r6     0.0080
   1729 C           -3.8293    -0.1121    10.8039 C       6      r6     0.0060
   1730 C           -3.6501    -2.5071    10.4414 C       6      r6     0.0005
   1731 C           -3.3281    -1.1420     9.8992 C       6      r6    -0.0003
   1732 C           -3.0145    -0.7935     8.5179 C       0      r0    -0.0019
   1733 C           -2.9053    -4.2406    12.0200 C       6      r6    -0.0014
   1734 C           -2.6539    -3.5449    10.7631 C       6      r6    -0.0029
   1735 C           -1.2218    -3.3413    10.5089 C       6      r6    -0.0113
   1736 C           -0.7028    -4.1046     9.4914 C       7      r7     0.0484
   1737 C           -0.4733    -3.5120     8.2610 C       7      r7    -0.0528
   1738 C           -0.4659    -0.4099    10.1620 C       6      r6    -0.0017
   1739 C           -0.3604    -2.7396    11.4924 C       6      r6     0.0005
   1740 C            0.0815    -0.1346     8.7728 C       6      r6     0.0008
   1741 C            0.2460    -1.5576    10.7454 C       6      r6    -0.0003
   1742 C            1.0295    -3.5321    11.6005 C       5      r5    -0.0025
   1743 C            1.5265    -1.8557    10.2930 C       6      r6    -0.0038
   1744 C            1.5270     0.1037     8.9214 C       6      r6    -0.0020
   1745 C            2.0901    -3.0456    10.8846 C       6      r6     0.0739
   1746 C            2.2570    -1.0708     9.4105 C       6      r6     0.0094
   1747 C            3.5112    -3.3448    10.8288 C       6      r6    -0.0421
   1748 C            3.6020    -1.2478     9.6904 C       6      r6     0.0017
   1749 C            4.3265    -2.3847    10.1791 C       6      r6     0.0071
   1750 C            4.3116    -0.0608     9.6081 C       6      r6    -0.0008
   1751 C            5.7505    -2.4261    10.2608 C       6      r6    -0.0090
   1752 C            5.7537    -0.0528     9.6765 C       6      r6    -0.0007
   1753 C            6.4838    -1.2478    10.0366 C       6      r6     0.0006
   1754 C            6.4931    -3.3279    11.1087 C       6      r6     0.0094
   1755 C            7.9016    -4.0868    10.4803 C       0      r0    -0.0011
   1756 C            7.8975    -0.9525    10.4819 C       7      r7    -0.0022
   1757 C            8.0550    -0.5494    11.9270 C       7      r7    -0.0003
   1758 C            8.4239    -3.8115     9.2093 C       0      r0    -0.0019
   1759 C            8.8288    -0.4880     9.4809 C       7      r7     0.0008
   1760 C           10.9677    -3.3059     9.0504 C       5      r5     0.0003
   1761 C           11.0221    -1.3729    10.9167 C       7      r7     0.0005
   1762 C           11.1172    -0.8789    12.3290 C       5      r5     0.0017
   1763 C           11.3016    -2.7369    10.4112 C       5      r5     0.0007
   1764 C           11.3673    -0.2754     9.9937 C       6      r6     0.0007
   1765 C           11.6724    -3.8335    11.1992 C       5      r5     0.0007
   1766 C           12.6994    -0.4818     9.3188 C       6      r6    -0.0011
   1767 C          -13.4064     2.0646    11.3353 C       6      r6     0.0011
   1768 C          -13.0042     0.9736    12.3050 C       6      r6    -0.0004
   1769 C          -13.0002     3.4222    11.6498 C       6      r6     0.0006
   1770 C          -12.0846     0.0058    11.7197 C       6      r6    -0.0005
   1771 C          -11.2306     0.7968     8.5504 C       6      r6    -0.0635
   1772 C          -10.6839     0.3835    11.9910 C       5      r5     0.0050
   1773 C          -10.0627     0.3303     9.2401 C       6      r6     0.0331
   1774 C           -9.6949     1.2684    11.4370 C       5      r5     0.0085
   1775 C           -9.5533     2.9903     9.4838 C       6      r6     0.2588
   1776 C           -9.2459     1.4911     9.9564 C       6      r6    -0.0476
   1777 C           -8.9966     4.0332    10.0753 C       5      r5    -0.0562
   1778 C           -8.8155     1.9197    12.4022 C       5      r5     0.0209
   1779 C           -7.9697     3.9779    11.1732 C       5      r5     0.0017
   1780 C           -7.7294     1.3133     9.6844 C       6      r6     0.0066
   1781 C           -7.6927     2.8004    12.1150 C       7      r7    -0.0063
   1782 C           -7.3075    -0.0126     9.6517 C       6      r6     0.0060
   1783 C           -7.0828     2.1965     8.6758 C       7      r7    -0.0003
   1784 C           -6.7044     4.2161    10.1668 C       6      r6    -0.0009
   1785 C           -6.3776     2.6684   -12.5924 C       6      r6     0.0327
   1786 C           -6.4640     3.5153     9.0390 C       6      r6     0.0022
   1787 C           -5.6505     0.3058    12.4527 C       6      r6     0.2330
   1788 C           -5.2979     1.6871    12.3688 C       6      r6    -0.0454
   1789 C           -4.1648     2.2461    11.6576 C       6      r6     0.0113
   1790 C           -3.9202     3.7113    11.5716 C       6      r6     0.0003
   1791 C           -3.3920     1.2721    10.8905 C       6      r6    -0.0078
   1792 C           -2.0642     1.5830    10.3153 C       0      r0     0.0017
   1793 C           -2.1014     2.2772     9.0333 C       7      r7    -0.0021
   1794 C           -1.0286     0.6992    10.9615 C       0      r0    -0.0034
   1795 C           -0.6529     0.7961    12.3702 C       6      r6     0.0016
   1796 C            0.1256     3.5664    12.1909 C       5      r5     0.0005
   1797 C            0.0748     2.0997    12.5284 C       6      r6     0.0030
   1798 C            0.3860     2.8314     8.4424 C       0      r0     0.0005
   1799 C            1.4840     1.8110   -12.4560 C       6      r6    -0.0013
   1800 C            1.6228     3.9418    11.9865 C       5      r5    -0.0030
   1801 C            1.6973     2.6269     8.5350 C       6      r6    -0.0007
   1802 C            2.1258     0.4492   -12.4377 C       6      r6    -0.0014
   1803 C            2.2611     1.3245     8.7966 C       6      r6     0.0001
   1804 C            2.4023     2.8084    12.5574 C       5      r5    -0.0015
   1805 C            2.7373     3.8704     8.4587 C       6      r6    -0.0007
   1806 C            3.5838     1.2169     9.5031 C       6      r6    -0.0003
   1807 C            3.8100     2.1310   -12.5058 C       6      r6    -0.0015
   1808 C            4.0706     3.5881     9.2433 C       6      r6     0.0003
   1809 C            4.1184     2.4415    10.1364 C       6      r6    -0.0020
   1810 C            4.7348     2.5487    11.5076 C       6      r6    -0.0023
   1811 C            5.7386     3.5465    11.6687 C       6      r6     0.0001
   1812 C            6.2478     4.1099    10.3982 C       6      r6     0.0004
   1813 C            6.3374     1.1407     8.9774 C       7      r7    -0.0018
   1814 C            7.6580     1.7086     8.9724 C       7      r7     0.0013
   1815 C            8.8708     3.9478    10.4617 C       5      r5    -0.0012
   1816 C            8.8158     1.0530     9.5788 C       7      r7     0.0010
   1817 C            9.0392     2.7982    11.3930 C       0      r0    -0.0021
   1818 C            9.5691     1.5937    10.6817 C       0      r0     0.0025
   1819 C           10.9773     1.0940    10.4541 C       6      r6     0.0003
   1820 C           11.8671     3.2041    11.4279 C       5      r5    -0.0010
   1821 C           12.0621     1.9440    10.7022 C       6      r6    -0.0003
   1822 C           13.4096     3.7790     8.7214 C       5      r5    -0.0072
   1823 C           13.4691     1.4472    10.5233 C       6      r6    -0.0002
   1824 C           13.8089     0.1437    10.0534 C       6      r6    -0.0017
   1825 C          -13.8603     7.1153    11.2658 C       6      r6    -0.0017
   1826 C          -13.3309     4.6162    10.8793 C       6      r6     0.0067
   1827 C          -13.1482     8.4048    11.2178 C       6      r6    -0.0014
   1828 C          -13.0279     5.9315    11.4963 C       6      r6    -0.0003
   1829 C          -12.1512     8.6153    12.2629 C       6      r6    -0.0037
   1830 C          -11.9963     6.1448    12.5207 C       6      r6    -0.0001
   1831 C           -9.9474     6.2368     8.6788 C       6      r6     0.0079
   1832 C           -9.7575     7.6425     8.9269 C       6      r6    -0.0037
   1833 C           -9.3587     5.3709     9.7137 C       6      r6     0.0537
   1834 C           -8.8935     5.9734    10.8776 C       6      r6    -0.0146
   1835 C           -8.6270     8.0020     9.7686 C       6      r6     0.0008
   1836 C           -8.3268     5.1781    11.8936 C       6      r6     0.0036
   1837 C           -8.2769     7.1786    10.8320 C       6      r6     0.0013
   1838 C           -7.3755     7.7203    11.8621 C       6      r6    -0.0018
   1839 C           -5.9932     5.4896    10.2253 C       6      r6    -0.0003
   1840 C           -5.7440     6.3046     9.0275 C       6      r6    -0.0006
   1841 C           -5.1584     5.8338    11.3456 C       5      r5    -0.0035
   1842 C           -4.8386     4.6609    12.2590 C       6      r6     0.0025
   1843 C           -4.5899     7.0762     9.3020 C       5      r5     0.0020
   1844 C           -4.2687     6.7388    10.7062 C       5      r5     0.0002
   1845 C           -3.1420     7.5064    11.3254 C       7      r7     0.0013
   1846 C           -3.1139     4.5522     9.2111 C       7      r7    -0.0003
   1847 C           -2.9986     4.4654    10.6463 C       0      r0    -0.0008
   1848 C           -2.1025     5.2680     8.3637 C       7      r7     0.0002
   1849 C           -1.8968     6.7961    11.3621 C       7      r7    -0.0006
   1850 C           -1.9095     5.2682    11.3159 C       0      r0    -0.0001
   1851 C           -0.8778     4.4477    11.7679 C       0      r0     0.0008
   1852 C           -0.6967     7.6166    11.0477 C       7      r7    -0.0027
   1853 C           -0.1531     7.4998     9.7449 C       0      r0    -0.0031
   1854 C            0.2972     7.3624     8.4878 C       6      r6    -0.0030
   1855 C            1.9796     4.5398    10.7765 C       0      r0    -0.0037
   1856 C            2.2797     5.0142     9.5693 C       7      r7     0.0010
   1857 C            2.6764     6.4148     9.2958 C       5      r5    -0.0043
   1858 C            2.8782     8.6933     9.6570 C       6      r6     0.0480
   1859 C            3.0379     7.8031    12.5029 C       6      r6     0.0038
   1860 C            3.4472     7.3818    10.0715 C       5      r5     0.0155
   1861 C            3.9373     7.3076    11.4726 C       6      r6     0.0305
   1862 C            5.0348     6.5061    12.1130 C       6      r6    -0.0011
   1863 C            5.2249     4.4233     9.3719 C       6      r6     0.0038
   1864 C            6.4652     6.9763    12.1724 C       6      r6     0.0258
   1865 C            6.9992     8.0562    11.3988 C       6      r6    -0.0434
   1866 C            7.5847     4.6646    10.0969 C       6      r6    -0.0008
   1867 C            7.7313     5.5964     8.9895 C       6      r6     0.0044
   1868 C            8.3260     7.9341    11.1714 C       6      r6    -0.0032
   1869 C            9.0997     5.3432     8.5137 C       5      r5     0.0015
   1870 C            9.3325     7.5853    12.1245 C       6      r6     0.0030
   1871 C            9.7213     4.3647     9.3882 C       5      r5    -0.0037
   1872 C           10.5632     8.2385    11.7455 C       6      r6     0.0059
   1873 C           10.9565     8.3872     9.1694 C       6      r6    -0.0033
   1874 C           11.2524     4.4429     9.0913 C       5      r5    -0.0014
   1875 C           11.8768     7.9115    12.2485 C       6      r6    -0.0051
   1876 C           12.0941     4.4829    10.5377 C       5      r5    -0.0021
   1877 C           12.0679     5.6872    11.5323 C       5      r5    -0.0034
   1878 C           12.2964     7.6268     9.4691 C       6      r6    -0.0026
   1879 C           12.5903     7.0565    11.1601 C       6      r6    -0.0024
   1880 C           13.4773     4.4983     9.9675 C       5      r5     0.0033
   1881 C           13.2425     8.7765     9.3422 C       6      r6    -0.0010
   1882 C          -13.8132     9.3846    10.3291 C       6      r6    -0.0024
   1883 C          -11.7866    10.1323    12.5267 C       7      r7    -0.0045
   1884 C          -10.7905    10.4402    11.4920 C       0      r0    -0.0062
   1885 C           -9.8368    10.8816    10.6568 C       0      r0    -0.0015
   1886 C           -9.1927    10.2811     9.3851 C       6      r6     0.0009
   1887 C           -9.0899    12.2735    11.2493 C       0      r0    -0.0011
   1888 C           -8.3020    12.6254    12.4539 C       7      r7    -0.0021
   1889 C           -8.0936     9.3796     9.6439 C       6      r6    -0.0005
   1890 C           -6.6486     9.7295     9.5822 C       6      r6     0.0000
   1891 C           -6.5090     8.9070    11.8271 C       6      r6    -0.0016
   1892 C           -6.2054    10.6112     8.4390 C       6      r6     0.0008
   1893 C           -5.7230     9.3408    10.6149 C       6      r6     0.0008
   1894 C           -5.1768    11.5672     8.8309 C       6      r6     0.0009
   1895 C           -4.3017     9.6903    10.5137 C       6      r6     0.0022
   1896 C           -4.0698    10.9280     9.7127 C       6      r6     0.0012
   1897 C           -3.3409     9.0279    11.4228 C       7      r7     0.0008
   1898 C           -3.0514    11.8073     9.9541 C       0      r0    -0.0010
   1899 C           -2.5195    12.8086    10.2319 C       0      r0     0.0012
   1900 C           -2.5561    11.2661    12.5814 C       6      r6     0.0002
   1901 C           -2.4363     9.8481    12.2070 C       7      r7    -0.0021
   1902 C           -0.1865     8.8138    11.8065 C       7      r7    -0.0028
   1903 C            1.2690    12.6990    11.0799 C       5      r5    -0.0039
   1904 C            1.1705     9.2293    11.6280 C       7      r7    -0.0029
   1905 C            2.0011    10.9133     9.8051 C       6      r6     0.0156
   1906 C            1.9486     9.5654    10.4098 C       6      r6     0.0048
   1907 C            2.1752     8.9150   -12.5800 C       5      r5     0.0172
   1908 C            2.4798    12.0073    10.6597 C       7      r7     0.0055
   1909 C            3.8357    12.4567    10.9570 C       7      r7     0.0375
   1910 C            4.1291    12.9894    12.2909 C       5      r5     0.0027
   1911 C            4.9755    12.5220     9.9994 C       6      r6    -0.0455
   1912 O            5.3915     9.9642    10.6161 O       6      r6    -0.4924
   1913 C            5.7503    11.3690     9.9297 C       6      r6     0.2298
   1914 C            6.6430     9.2347    10.6148 C       6      r6     0.2847
   1915 C            6.9195    11.6011     9.1321 C       6      r6    -0.0474
   1916 C            7.8395     9.5986     9.9781 C       6      r6    -0.0465
   1917 C            8.0363    10.6875     9.1302 C       6      r6     0.0652
   1918 C            8.8478     8.7232    10.2405 C       5      r5     0.0229
   1919 C           10.3095     8.7510    10.4024 C       6      r6    -0.0046
   1920 C           12.3604    12.9189    10.9846 C       6      r6     0.0049
   1921 C           12.3137    12.5821     9.5580 C       6      r6    -0.0012
   1922 C           12.7449    11.9806    12.1407 C       6      r6     0.0268
   1923 C           13.2938    11.4695     9.2617 C       6      r6    -0.0004
   1924 C          -13.9200    11.5124    11.6610 C       6      r6    -0.0098
   1925 C          -13.9434    10.8305    10.3438 C       6      r6    -0.0002
   1926 B           13.9780   -13.0583    12.6233 B       8     BOX     0.0000
   1927 B          -13.9780   -13.0583    12.6233 B       8     BOX     0.0000
   1928 B          -13.9780    13.0583    12.6233 B       8     BOX     0.0000
   1929 B           13.9780    13.0583    12.6233 B       8     BOX     0.0000
   1930 B           13.9780   -13.0583   -12.6233 B       8     BOX     0.0000
   1931 B          -13.9780   -13.0583   -12.6233 B       8     BOX     0.0000
   1932 B          -13.9780    13.0583   -12.6233 B       8     BOX     0.0000
   1933 B           13.9780    13.0583   -12.6233 B       8     BOX     0.0000
@<TRIPOS>BOND
     1      1      3      1
     2      2      4      1
     3      2    314      1
     4      3      6      1
     5      3   1612      1
     6      4      7      1
     7      5      8      1
     8      5     59      1
     9      5    316      1
    10      6      7      1
    11      6      9      1
    12      8     10      1
    13      8     67      1
    14      9     12      1
    15     10     13      1
    16     10    321      1
    17     11     12      1
    18     13     14      1
    19     13     15      1
    20     14    322      1
    21     15     17      1
    22     15     70      1
    23     16     19      1
    24     17     18      1
    25     17     74      1
    26     18     20      1
    27     19     20      1
    28     19     22      1
    29     20     24      1
    30     21     23      1
    31     22     25      1
    32     23     26      1
    33     23    330      1
    34     24     25      1
    35     24     26      1
    36     24     27      1
    37     25     28      1
    38     26     29      1
    39     27     84      1
    40     29     30      1
    41     30     32      1
    42     30    334      1
    43     31   1637      1
    44     31   1639      1
    45     32     36      1
    46     32    340      1
    47     33     34      1
    48     33     87      1
    49     33     93      1
    50     34     35      1
    51     35     36      1
    52     35     37      1
    53     38     41      1
    54     38     96      1
    55     39     40      1
    56     39    344      1
    57     40     43      1
    58     41     42      1
    59     41     43      1
    60     42     44      1
    61     42    103      1
    62     43     45      1
    63     44    344      1
    64     44    348      1
    65     45     46      1
    66     45     48      1
    67     47     48      1
    68     47    103      1
    69     47    108      1
    70     48     49      1
    71     49     50      1
    72     49     51      1
    73     50     52      1
    74     51     53      1
    75     51    111      1
    76     53     54      1
    77     53    355      1
    78     54     55      1
    79     54     58      1
    80     56     57      1
    81     56   1709      1
    82     57     58      1
    83     57    117      1
    84     60     63      1
    85     60    123      1
    86     60    411      1
    87     61   1612      1
    88     61   1669      1
    89     62     64      1
    90     62    123      1
    91     62    124      1
    92     63     65      1
    93     63    364      1
    94     64     65      1
    95     64     66      1
    96     65     67      1
    97     66     68      1
    98     66   1669      1
    99     67     70      1
   100     68     71      1
   101     68   1672      1
   102     69     71      1
   103     69     72      1
   104     69    131      1
   105     70     72      1
   106     71    132      1
   107     72     73      1
   108     73     74      1
   109     73     76      1
   110     74     75      1
   111     75     77      1
   112     76     78      1
   113     76    137      1
   114     77     80      1
   115     78     79      1
   116     78     80      1
   117     79    377      1
   118     79    379      1
   119     80     81      1
   120     81     82      1
   121     81    140      1
   122     82     83      1
   123     82    142      1
   124     83     86      1
   125     83    382      1
   126     84     85      1
   127     84     87      1
   128     85     88      1
   129     86     89      1
   130     86    379      1
   131     87     89      1
   132     88     90      1
   133     89     91      1
   134     90     91      1
   135     90     92      1
   136     91     93      1
   137     91     94      1
   138     92    151      1
   139     93     96      1
   140     94     95      1
   141     94    392      1
   142     95    151      1
   143     95    155      1
   144     96     97      1
   145     97     98      1
   146     97    100      1
   147     98    101      1
   148     99    100      1
   149     99    392      1
   150     99    396      1
   151    100    102      1
   152    100    103      1
   153    101    102      1
   154    101    104      1
   155    102    105      1
   156    104    162      1
   157    105    106      1
   158    105    107      1
   159    106    110      1
   160    106    165      1
   161    107    108      1
   162    107    109      1
   163    108    111      1
   164    109    112      1
   165    110    113      1
   166    110    457      1
   167    111    115      1
   168    112    113      1
   169    112    116      1
   170    113    114      1
   171    114    115      1
   172    114    406      1
   173    115    117      1
   174    117    118      1
   175    118    406      1
   176    118    409      1
   177    119    122      1
   178    120    121      1
   179    120    122      1
   180    121    414      1
   181    122    125      1
   182    123    126      1
   183    125    126      1
   184    125    127      1
   185    126    128      1
   186    127    129      1
   187    127    175      1
   188    128    130      1
   189    128    131      1
   190    129    130      1
   191    129    178      1
   192    130    420      1
   193    131    421      1
   194    132    134      1
   195    133    135      1
   196    134    135      1
   197    134    136      1
   198    136    137      1
   199    136    138      1
   200    137    428      1
   201    138    139      1
   202    139    428      1
   203    140    141      1
   204    141    144      1
   205    142    143      1
   206    142    438      1
   207    143    144      1
   208    143    145      1
   209    144    146      1
   210    145    147      1
   211    145    436      1
   212    146    148      1
   213    147    149      1
   214    147    485      1
   215    148    150      1
   216    148   1802      1
   217    149    152      1
   218    149    441      1
   219    150    152      1
   220    150    153      1
   221    151    154      1
   222    152    191      1
   223    153    154      1
   224    153    157      1
   225    154    156      1
   226    155    156      1
   227    155    393      1
   228    156    158      1
   229    157    160      1
   230    157    190      1
   231    158    159      1
   232    158    161      1
   233    159    194      1
   234    159    445      1
   235    159    448      1
   236    160    197      1
   237    161    162      1
   238    161    165      1
   239    163    164      1
   240    163   1754      1
   241    164   1757      1
   242    165    453      1
   243    166   1765      1
   244    167    168      1
   245    167    211      1
   246    169    173      1
   247    169    217      1
   248    169    467      1
   249    170    171      1
   250    171    172      1
   251    171    173      1
   252    172    220      1
   253    173    174      1
   254    174    176      1
   255    174    222      1
   256    175    177      1
   257    176    470      1
   258    176    522      1
   259    177    179      1
   260    178    179      1
   261    178    180      1
   262    179    181      1
   263    180    420      1
   264    180    473      1
   265    181    182      1
   266    181    183      1
   267    182    233      1
   268    182    235      1
   269    183    473      1
   270    183    476      1
   271    184    233      1
   272    184   1785      1
   273    185    186      1
   274    185    237      1
   275    185    483      1
   276    186    187      1
   277    186    240      1
   278    187    188      1
   279    187    485      1
   280    188    189      1
   281    188    492      1
   282    189    191      1
   283    189    192      1
   284    190   1802      1
   285    190   1807      1
   286    191    194      1
   287    192    193      1
   288    192   1807      1
   289    193    195      1
   290    193    196      1
   291    194    197      1
   292    194    494      1
   293    195    251      1
   294    195    493      1
   295    196    250      1
   296    196    253      1
   297    197    198      1
   298    198    199      1
   299    198    201      1
   300    199    203      1
   301    199    494      1
   302    200    202      1
   303    200    205      1
   304    200    253      1
   305    201    202      1
   306    201    204      1
   307    203    206      1
   308    203    499      1
   309    204    207      1
   310    205    206      1
   311    205    256      1
   312    206    504      1
   313    207    208      1
   314    208    210      1
   315    208    211      1
   316    209    210      1
   317    209    262      1
   318    210    212      1
   319    211    215      1
   320    212    213      1
   321    212    214      1
   322    213    264      1
   323    214    215      1
   324    214    511      1
   325    216    265      1
   326    217    218      1
   327    218    518      1
   328    219    269      1
   329    219    515      1
   330    220    222      1
   331    221    223      1
   332    222    225      1
   333    223    224      1
   334    223    225      1
   335    224    227      1
   336    224    270      1
   337    225    226      1
   338    226    228      1
   339    226    522      1
   340    227    228      1
   341    227    274      1
   342    228    231      1
   343    229    230      1
   344    229    233      1
   345    230    232      1
   346    231    232      1
   347    231    234      1
   348    232    278      1
   349    234    235      1
   350    234    528      1
   351    235    474      1
   352    236    239      1
   353    236    290      1
   354    236    540      1
   355    237    238      1
   356    237    541      1
   357    238    240      1
   358    238    241      1
   359    239    241      1
   360    239    298      1
   361    239    596      1
   362    240    246      1
   363    241    243      1
   364    241    245      1
   365    242    243      1
   366    242    298      1
   367    242   1907      1
   368    243    244      1
   369    244    247      1
   370    245    248      1
   371    245    249      1
   372    246    247      1
   373    246    248      1
   374    247    250      1
   375    248    251      1
   376    249    546      1
   377    249    598      1
   378    251    252      1
   379    252    546      1
   380    252    550      1
   381    253    254      1
   382    254    255      1
   383    255    257      1
   384    256    257      1
   385    256    258      1
   386    257    259      1
   387    258    260      1
   388    258    557      1
   389    259    260      1
   390    259    263      1
   391    260    261      1
   392    261    562      1
   393    262    264      1
   394    263    265      1
   395    264    265      1
   396    266    267      1
   397    267    269      1
   398    267    312      1
   399    268    312      1
   400    269    270      1
   401    270    271      1
   402    271    272      1
   403    272    273      1
   404    274    276      1
   405    274    573      1
   406    274    577      1
   407    275    277      1
   408    275    573      1
   409    275    574      1
   410    276    277      1
   411    276    278      1
   412    277    282      1
   413    278    280      1
   414    279    281      1
   415    280    281      1
   416    281    284      1
   417    282    283      1
   418    282    285      1
   419    283    581      1
   420    284    285      1
   421    284    286      1
   422    285    287      1
   423    287    288      1
   424    288    289      1
   425    288    292      1
   426    289    290      1
   427    289    589      1
   428    290    294      1
   429    291    295      1
   430    292    591      1
   431    293    294      1
   432    294    296      1
   433    295    296      1
   434    296    298      1
   435    297   1903      1
   436    299    300      1
   437    299    591      1
   438    300    302      1
   439    300    594      1
   440    302    601      1
   441    303    304      1
   442    303    306      1
   443    304    305      1
   444    306    307      1
   445    306    608      1
   446    307    308      1
   447    308    309      1
   448    308    617      1
   449    309    310      1
   450    313    315      1
   451    313    625      1
   452    314    315      1
   453    314    316      1
   454    315    317      1
   455    316    318      1
   456    317    318      1
   457    317    319      1
   458    318    321      1
   459    319    320      1
   460    319    628      1
   461    320    630      1
   462    321    322      1
   463    323    324      1
   464    323    630      1
   465    324    326      1
   466    324    327      1
   467    325    326      1
   468    325    373      1
   469    325    632      1
   470    326    328      1
   471    327    329      1
   472    328    329      1
   473    328    375      1
   474    329    330      1
   475    330    331      1
   476    331    332      1
   477    331    377      1
   478    332    334      1
   479    332    379      1
   480    333    335      1
   481    333    639      1
   482    334    336      1
   483    335    336      1
   484    335    337      1
   485    336    338      1
   486    336    384      1
   487    337    339      1
   488    337    644      1
   489    338    340      1
   490    338    388      1
   491    339    645      1
   492    340    341      1
   493    341    343      1
   494    341    344      1
   495    342    343      1
   496    342    390      1
   497    342    650      1
   498    343    345      1
   499    345    346      1
   500    345    347      1
   501    346    656      1
   502    347    348      1
   503    348    349      1
   504    349    350      1
   505    349    398      1
   506    350    352      1
   507    350    401      1
   508    351    352      1
   509    351    354      1
   510    351    610      1
   511    352    355      1
   512    353    402      1
   513    353    660      1
   514    353    663      1
   515    354    356      1
   516    355    357      1
   517    356    357      1
   518    356    358      1
   519    357    359      1
   520    358    666      1
   521    359    409      1
   522    360    408      1
   523    360    409      1
   524    361    362      1
   525    361    674      1
   526    362    363      1
   527    363    364      1
   528    363    366      1
   529    364    365      1
   530    365    367      1
   531    365    412      1
   532    366    368      1
   533    366    676      1
   534    367    369      1
   535    367    418      1
   536    368    370      1
   537    369    370      1
   538    369    421      1
   539    370    371      1
   540    371    372      1
   541    371    374      1
   542    372    376      1
   543    372    426      1
   544    373    374      1
   545    373    685      1
   546    374    375      1
   547    375    377      1
   548    376    378      1
   549    376    688      1
   550    378    380      1
   551    378    431      1
   552    380    383      1
   553    380    693      1
   554    381    384      1
   555    381    691      1
   556    382    383      1
   557    382    438      1
   558    383    385      1
   559    384    386      1
   560    385    386      1
   561    385    387      1
   562    386    388      1
   563    387    389      1
   564    387    698      1
   565    388    390      1
   566    389    391      1
   567    389    443      1
   568    390    391      1
   569    391    703      1
   570    392    393      1
   571    393    395      1
   572    394    395      1
   573    394    443      1
   574    394    759      1
   575    395    397      1
   576    396    397      1
   577    396    398      1
   578    397    399      1
   579    398    400      1
   580    399    400      1
   581    399    707      1
   582    400    401      1
   583    401    402      1
   584    402    403      1
   585    403    404      1
   586    403    405      1
   587    404    458      1
   588    404    715      1
   589    405    406      1
   590    405    408      1
   591    407    408      1
   592    407    663      1
   593    407    668      1
   594    410    413      1
   595    410    725      1
   596    411    412      1
   597    412    413      1
   598    413    416      1
   599    414    415      1
   600    415    468      1
   601    416    417      1
   602    416    418      1
   603    417    472      1
   604    417    728      1
   605    417    732      1
   606    418    419      1
   607    419    423      1
   608    419    732      1
   609    420    422      1
   610    421    424      1
   611    422    424      1
   612    422    425      1
   613    423    425      1
   614    423    737      1
   615    424    426      1
   616    425    427      1
   617    426    429      1
   618    427    430      1
   619    427    475      1
   620    428    429      1
   621    429    431      1
   622    430    432      1
   623    430    740      1
   624    431    433      1
   625    432    433      1
   626    432    481      1
   627    433    434      1
   628    433    435      1
   629    434    437      1
   630    434    743      1
   631    435    436      1
   632    435    438      1
   633    436    482      1
   634    437    746      1
   635    439    442      1
   636    439    486      1
   637    439    750      1
   638    440    442      1
   639    440    443      1
   640    440    753      1
   641    441    444      1
   642    441    486      1
   643    442    444      1
   644    444    445      1
   645    445    447      1
   646    446    447      1
   647    446    759      1
   648    446    760      1
   649    447    450      1
   650    448    450      1
   651    448    452      1
   652    448    495      1
   653    449    451      1
   654    449    496      1
   655    449    761      1
   656    450    451      1
   657    451    454      1
   658    452    453      1
   659    452    456      1
   660    453    457      1
   661    454    455      1
   662    454    767      1
   663    455    458      1
   664    456    459      1
   665    456    503      1
   666    457    460      1
   667    458    461      1
   668    459    460      1
   669    459    462      1
   670    460    463      1
   671    461    463      1
   672    461    464      1
   673    462    465      1
   674    462    509      1
   675    463    466      1
   676    464    774      1
   677    465    466      1
   678    467    516      1
   679    468    471      1
   680    468    472      1
   681    469    471      1
   682    469    521      1
   683    469    784      1
   684    470    471      1
   685    472    786      1
   686    473    475      1
   687    474    476      1
   688    474    530      1
   689    475    477      1
   690    476    477      1
   691    477    479      1
   692    478    479      1
   693    478    530      1
   694    478    535      1
   695    479    480      1
   696    480    481      1
   697    480    798      1
   698    481    482      1
   699    482    484      1
   700    483    484      1
   701    484    485      1
   702    486    488      1
   703    487    489      1
   704    487    490      1
   705    487    862      1
   706    488    489      1
   707    488    491      1
   708    489    810      1
   709    490    491      1
   710    490    545      1
   711    491    492      1
   712    492    493      1
   713    493    494      1
   714    494    495      1
   715    495    496      1
   716    496    497      1
   717    497    498      1
   718    497    499      1
   719    498    500      1
   720    498    816      1
   721    499    501      1
   722    500    505      1
   723    500    819      1
   724    501    504      1
   725    501    505      1
   726    502    503      1
   727    502    506      1
   728    502    767      1
   729    503    507      1
   730    504    557      1
   731    505    560      1
   732    506    508      1
   733    506    820      1
   734    507    508      1
   735    507    509      1
   736    508    510      1
   737    509    511      1
   738    510    512      1
   739    510    513      1
   740    511    513      1
   741    512    825      1
   742    514    516      1
   743    515    517      1
   744    515    564      1
   745    516    518      1
   746    517    518      1
   747    517    519      1
   748    519    830      1
   749    520    521      1
   750    520    524      1
   751    520    835      1
   752    521    523      1
   753    522    523      1
   754    523    524      1
   755    524    526      1
   756    525    526      1
   757    525    837      1
   758    525    843      1
   759    526    527      1
   760    527    528      1
   761    527    577      1
   762    528    529      1
   763    529    530      1
   764    529    531      1
   765    531    533      1
   766    531    534      1
   767    532    534      1
   768    532    535      1
   769    532    847      1
   770    533    536      1
   771    533    584      1
   772    534    537      1
   773    535    538      1
   774    535    799      1
   775    536    537      1
   776    536    540      1
   777    536    587      1
   778    537    539      1
   779    537    542      1
   780    538    539      1
   781    538    543      1
   782    539    541      1
   783    540    541      1
   784    542    544      1
   785    542    856      1
   786    543    803      1
   787    543    856      1
   788    544    588      1
   789    544    910      1
   790    545    547      1
   791    545    863      1
   792    546    604      1
   793    547    548      1
   794    547    549      1
   795    548    865      1
   796    548    872      1
   797    549    551      1
   798    550    551      1
   799    550    552      1
   800    551    554      1
   801    552    555      1
   802    552    606      1
   803    553    554      1
   804    553    872      1
   805    553    875      1
   806    554    555      1
   807    555    556      1
   808    556    558      1
   809    556    613      1
   810    557    561      1
   811    558    559      1
   812    558    562      1
   813    559    560      1
   814    559    878      1
   815    560    561      1
   816    561    562      1
   817    563    884      1
   818    564    567      1
   819    565    566      1
   820    566    567      1
   821    566    568      1
   822    567    569      1
   823    568    570      1
   824    568    571      1
   825    569    571      1
   826    570    574      1
   827    571    573      1
   828    572    575      1
   829    572    891      1
   830    575    576      1
   831    575    896      1
   832    576    578      1
   833    577    580      1
   834    578    579      1
   835    578    582      1
   836    579    897      1
   837    579    901      1
   838    580    583      1
   839    581    582      1
   840    582    583      1
   841    583    584      1
   842    584    585      1
   843    585    586      1
   844    585    901      1
   845    586    588      1
   846    586    906      1
   847    587    588      1
   848    587    589      1
   849    588    590      1
   850    589    592      1
   851    590    593      1
   852    590    911      1
   853    591    592      1
   854    592    593      1
   855    592    594      1
   856    593    595      1
   857    594    596      1
   858    595    597      1
   859    596    598      1
   860    597    599      1
   861    598    600      1
   862    599    602      1
   863    599    603      1
   864    600    601      1
   865    600    604      1
   866    601    603      1
   867    602    924      1
   868    603    605      1
   869    604    606      1
   870    605    607      1
   871    606    609      1
   872    607    608      1
   873    608    609      1
   874    609    611      1
   875    611    612      1
   876    611    613      1
   877    612    614      1
   878    613    615      1
   879    614    616      1
   880    615    617      1
   881    615    619      1
   882    616    618      1
   883    617    620      1
   884    618    619      1
   885    618    936      1
   886    619    621      1
   887    620    621      1
   888    622    623      1
   889    622    625      1
   890    623    624      1
   891    623    626      1
   892    624    627      1
   893    624    938      1
   894    626    944      1
   895    627    673      1
   896    627    945      1
   897    628    629      1
   898    628    676      1
   899    629    630      1
   900    629    632      1
   901    631    633      1
   902    631    952      1
   903    632    633      1
   904    632    680      1
   905    633    635      1
   906    634    635      1
   907    634    957      1
   908    635    686      1
   909    636    637      1
   910    636    686      1
   911    636    691      1
   912    637    638      1
   913    637    641      1
   914    638    639      1
   915    638    640      1
   916    639    644      1
   917    640    642      1
   918    640    643      1
   919    641    643      1
   920    641    694      1
   921    642    965      1
   922    643    966      1
   923    645    646      1
   924    646    647      1
   925    646    648      1
   926    647    652      1
   927    648    649      1
   928    648    651      1
   929    649    653      1
   930    649    654      1
   931    649    973      1
   932    650    651      1
   933    650    703      1
   934    651    655      1
   935    652    654      1
   936    653    978      1
   937    653   1038      1
   938    654    657      1
   939    655    656      1
   940    655    658      1
   941    656    659      1
   942    657    978      1
   943    657    981      1
   944    658    660      1
   945    658    708      1
   946    659    661      1
   947    660    661      1
   948    661    662      1
   949    662    664      1
   950    663    665      1
   951    663    717      1
   952    664    665      1
   953    664    666      1
   954    665    667      1
   955    667    668      1
   956    669    671      1
   957    669   1002      1
   958    670    671      1
   959    670    672      1
   960    671    673      1
   961    672    675      1
   962    673    674      1
   963    674    676      1
   964    675    677      1
   965    675    727      1
   966    676    678      1
   967    677    679      1
   968    677    731      1
   969    678    679      1
   970    678    680      1
   971    679    681      1
   972    680    683      1
   973    681    682      1
   974    681    683      1
   975    682    684      1
   976    682    733      1
   977    683    685      1
   978    684    687      1
   979    684    739      1
   980    685    686      1
   981    685    688      1
   982    687    688      1
   983    687    689      1
   984    688    690      1
   985    689   1019      1
   986    689   1023      1
   987    690    691      1
   988    690    693      1
   989    692    694      1
   990    692   1023      1
   991    693    695      1
   992    694    696      1
   993    695    696      1
   994    695    698      1
   995    696    697      1
   996    697    699      1
   997    697   1030      1
   998    698    748      1
   999    699    700      1
  1000    699    701      1
  1001    700    749      1
  1002    700    754      1
  1003    701    702      1
  1004    701    704      1
  1005    702    971      1
  1006    702   1038      1
  1007    703    706      1
  1008    704    705      1
  1009    704    706      1
  1010    705    754      1
  1011    705    758      1
  1012    706    707      1
  1013    707    708      1
  1014    708    711      1
  1015    709    710      1
  1016    709   1045      1
  1017    709   1046      1
  1018    710    712      1
  1019    710    766      1
  1020    711    712      1
  1021    711    714      1
  1022    712    715      1
  1023    713    714      1
  1024    713    985      1
  1025    713   1046      1
  1026    714    717      1
  1027    715    716      1
  1028    716    719      1
  1029    716    770      1
  1030    717    718      1
  1031    718    720      1
  1032    718    721      1
  1033    719    720      1
  1034    719    774      1
  1035    721   1055      1
  1036    722    724      1
  1037    722    726      1
  1038    723    724      1
  1039    723   1003      1
  1040    724    727      1
  1041    725    728      1
  1042    726    780      1
  1043    726   1056      1
  1044    726   1061      1
  1045    727    729      1
  1046    728    779      1
  1047    729    730      1
  1048    729    731      1
  1049    730   1061      1
  1050    730   1064      1
  1051    731    733      1
  1052    732    735      1
  1053    733    734      1
  1054    734   1064      1
  1055    734   1070      1
  1056    735    736      1
  1057    735    787      1
  1058    736    737      1
  1059    736    738      1
  1060    737    740      1
  1061    738    741      1
  1062    738   1072      1
  1063    739   1019      1
  1064    739   1070      1
  1065    740    743      1
  1066    741    742      1
  1067    741    794      1
  1068    742    743      1
  1069    742    744      1
  1070    744    745      1
  1071    745   1082      1
  1072    746    750      1
  1073    746    806      1
  1074    747    749      1
  1075    747    751      1
  1076    747   1086      1
  1077    748    749      1
  1078    748    753      1
  1079    750    752      1
  1080    751    752      1
  1081    751    808      1
  1082    752    753      1
  1083    754    755      1
  1084    755    756      1
  1085    755   1092      1
  1086    756    757      1
  1087    756    811      1
  1088    757    758      1
  1089    757    760      1
  1090    758    759      1
  1091    760    761      1
  1092    761    814      1
  1093    762    764      1
  1094    762   1098      1
  1095    762   1099      1
  1096    763    765      1
  1097    763    817      1
  1098    763   1098      1
  1099    764    765      1
  1100    764    766      1
  1101    765    768      1
  1102    766    770      1
  1103    767    769      1
  1104    768    769      1
  1105    768    771      1
  1106    768    772      1
  1107    769    820      1
  1108    770    771      1
  1109    771    773      1
  1110    772    823      1
  1111    772   1109      1
  1112    772   1163      1
  1113    773    774      1
  1114    773    775      1
  1115    775    776      1
  1116    775    823      1
  1117    776    827      1
  1118    777    778      1
  1119    777    779      1
  1120    778    781      1
  1121    779    780      1
  1122    780    782      1
  1123    781    783      1
  1124    781    784      1
  1125    782   1119      1
  1126    783    833      1
  1127    783    836      1
  1128    784    785      1
  1129    785    786      1
  1130    785    788      1
  1131    786    787      1
  1132    787    790      1
  1133    788    789      1
  1134    788    790      1
  1135    789    791      1
  1136    789    838      1
  1137    790    792      1
  1138    791    793      1
  1139    791    846      1
  1140    792    793      1
  1141    792    794      1
  1142    793    795      1
  1143    794    796      1
  1144    795    796      1
  1145    795    797      1
  1146    796    800      1
  1147    796   1130      1
  1148    797    801      1
  1149    797    849      1
  1150    798    799      1
  1151    798    802      1
  1152    799    803      1
  1153    800    802      1
  1154    800    804      1
  1155    801    805      1
  1156    801   1134      1
  1157    802    806      1
  1158    803    853      1
  1159    804    807      1
  1160    804   1135      1
  1161    805    853      1
  1162    805   1139      1
  1163    806    807      1
  1164    807    808      1
  1165    808   1142      1
  1166    809    812      1
  1167    809    813      1
  1168    809   1146      1
  1169    810    814      1
  1170    811    812      1
  1171    811    814      1
  1172    812   1153      1
  1173    813    815      1
  1174    813    864      1
  1175    815    871      1
  1176    815   1155      1
  1177    816    818      1
  1178    817   1156      1
  1179    817   1159      1
  1180    818    819      1
  1181    818    873      1
  1182    819    880      1
  1183    820    821      1
  1184    821    822      1
  1185    821    823      1
  1186    821    827      1
  1187    822    824      1
  1188    822    825      1
  1189    823    826      1
  1190    824    885      1
  1191    824   1168      1
  1192    825    884      1
  1193    826   1168      1
  1194    828    829      1
  1195    828    830      1
  1196    829    831      1
  1197    830    832      1
  1198    831    833      1
  1199    831   1170      1
  1200    832    834      1
  1201    832    890      1
  1202    833   1177      1
  1203    834    835      1
  1204    834    837      1
  1205    835    836      1
  1206    836    838      1
  1207    837    895      1
  1208    838    839      1
  1209    839    842      1
  1210    839   1179      1
  1211    840    841      1
  1212    840    842      1
  1213    840   1233      1
  1214    841    843      1
  1215    841    898      1
  1216    842    845      1
  1217    843    844      1
  1218    844    847      1
  1219    845    846      1
  1220    845    848      1
  1221    846    849      1
  1222    848    850      1
  1223    849    850      1
  1224    850    851      1
  1225    851    852      1
  1226    852    855      1
  1227    852   1196      1
  1228    853    854      1
  1229    854    855      1
  1230    854    856      1
  1231    855    857      1
  1232    857    858      1
  1233    857    910      1
  1234    858    860      1
  1235    858    915      1
  1236    859    860      1
  1237    859    861      1
  1238    859   1198      1
  1239    860   1200      1
  1240    861    862      1
  1241    861    864      1
  1242    862    863      1
  1243    863    865      1
  1244    864    866      1
  1245    865    866      1
  1246    866    868      1
  1247    867    919      1
  1248    867   1203      1
  1249    867   1207      1
  1250    868    870      1
  1251    868    871      1
  1252    869    870      1
  1253    869    920      1
  1254    869    926      1
  1255    870    872      1
  1256    871    873      1
  1257    871   1210      1
  1258    873    876      1
  1259    874    875      1
  1260    874    877      1
  1261    874    926      1
  1262    875    878      1
  1263    876    879      1
  1264    876   1212      1
  1265    877    881      1
  1266    877    931      1
  1267    878    880      1
  1268    879    880      1
  1269    879    881      1
  1270    879    883      1
  1271    880    884      1
  1272    881    882      1
  1273    882    935      1
  1274    882   1218      1
  1275    883    885      1
  1276    883   1218      1
  1277    886    889      1
  1278    886    890      1
  1279    887    888      1
  1280    887    889      1
  1281    888    891      1
  1282    889    893      1
  1283    890    892      1
  1284    891    892      1
  1285    892    895      1
  1286    893    894      1
  1287    893   1228      1
  1288    894   1231      1
  1289    895    896      1
  1290    896    897      1
  1291    897    898      1
  1292    898    899      1
  1293    899    900      1
  1294    899    902      1
  1295    900    903      1
  1296    900   1236      1
  1297    901    902      1
  1298    902    904      1
  1299    903    904      1
  1300    903    905      1
  1301    904    906      1
  1302    905    907      1
  1303    905   1240      1
  1304    906    908      1
  1305    907    908      1
  1306    908    909      1
  1307    909    911      1
  1308    910    912      1
  1309    911    912      1
  1310    912    913      1
  1311    913    914      1
  1312    913    915      1
  1313    914    916      1
  1314    914   1250      1
  1315    915    918      1
  1316    916    917      1
  1317    917    918      1
  1318    917   1256      1
  1319    918    919      1
  1320    919    920      1
  1321    919    923      1
  1322    920    922      1
  1323    921    923      1
  1324    921   1257      1
  1325    922    924      1
  1326    923   1262      1
  1327    924    925      1
  1328    925    927      1
  1329    925    928      1
  1330    926    928      1
  1331    927    930      1
  1332    928    929      1
  1333    929    931      1
  1334    929    932      1
  1335    930    932      1
  1336    931    933      1
  1337    932    934      1
  1338    933    934      1
  1339    933    935      1
  1340    934    936      1
  1341    935   1273      1
  1342    936    937      1
  1343    938    939      1
  1344    939    942      1
  1345    939   1002      1
  1346    940    941      1
  1347    941    942      1
  1348    941    944      1
  1349    942    943      1
  1350    942    945      1
  1351    943    947      1
  1352    943   1004      1
  1353    943   1278      1
  1354    944    946      1
  1355    945    949      1
  1356    945   1005      1
  1357    946    951      1
  1358    947    950      1
  1359    947   1286      1
  1360    948    950      1
  1361    948   1282      1
  1362    949    952      1
  1363    949   1012      1
  1364    950    953      1
  1365    951    952      1
  1366    951    954      1
  1367    953    955      1
  1368    953   1287      1
  1369    954    956      1
  1370    955    958      1
  1371    955   1016      1
  1372    955   1290      1
  1373    956    959      1
  1374    957    958      1
  1375    957   1015      1
  1376    958    959      1
  1377    959    960      1
  1378    960    961      1
  1379    960   1296      1
  1380    961    962      1
  1381    962    964      1
  1382    963    964      1
  1383    963   1026      1
  1384    963   1301      1
  1385    964   1300      1
  1386    965    968      1
  1387    966    967      1
  1388    966    968      1
  1389    967   1027      1
  1390    967   1034      1
  1391    968    970      1
  1392    969    972      1
  1393    969   1309      1
  1394    970    972      1
  1395    970    973      1
  1396    971    973      1
  1397    971   1034      1
  1398    972    974      1
  1399    974    976      1
  1400    975    976      1
  1401    975    977      1
  1402    975   1311      1
  1403    977    979      1
  1404    977   1314      1
  1405    978   1044      1
  1406    979    980      1
  1407    979   1319      1
  1408    980    981      1
  1409    980    982      1
  1410    981    983      1
  1411    982    984      1
  1412    982    985      1
  1413    982   1044      1
  1414    983    988      1
  1415    984    987      1
  1416    984   1317      1
  1417    985    989      1
  1418    986    987      1
  1419    986   1319      1
  1420    986   1327      1
  1421    987    991      1
  1422    988    989      1
  1423    988    990      1
  1424    989    992      1
  1425    990    995      1
  1426    991    993      1
  1427    991    994      1
  1428    992    996      1
  1429    992   1051      1
  1430    993   1327      1
  1431    993   1331      1
  1432    994    998      1
  1433    994   1051      1
  1434    995    996      1
  1435    995    997      1
  1436    999   1054      1
  1437   1000   1002      1
  1438   1000   1003      1
  1439   1001   1004      1
  1440   1001   1332      1
  1441   1002   1005      1
  1442   1003   1006      1
  1443   1004   1337      1
  1444   1005   1007      1
  1445   1006   1007      1
  1446   1006   1062      1
  1447   1007   1010      1
  1448   1008   1009      1
  1449   1008   1060      1
  1450   1008   1341      1
  1451   1009   1011      1
  1452   1009   1062      1
  1453   1010   1011      1
  1454   1010   1012      1
  1455   1011   1013      1
  1456   1012   1015      1
  1457   1013   1014      1
  1458   1013   1344      1
  1459   1014   1016      1
  1460   1014   1346      1
  1461   1015   1016      1
  1462   1017   1074      1
  1463   1017   1348      1
  1464   1017   1352      1
  1465   1018   1019      1
  1466   1018   1021      1
  1467   1018   1074      1
  1468   1020   1021      1
  1469   1020   1022      1
  1470   1020   1352      1
  1471   1021   1024      1
  1472   1022   1025      1
  1473   1022   1355      1
  1474   1023   1024      1
  1475   1024   1025      1
  1476   1025   1026      1
  1477   1026   1027      1
  1478   1027   1031      1
  1479   1028   1031      1
  1480   1028   1032      1
  1481   1028   1361      1
  1482   1029   1030      1
  1483   1029   1032      1
  1484   1029   1082      1
  1485   1030   1031      1
  1486   1031   1033      1
  1487   1032   1035      1
  1488   1032   1084      1
  1489   1033   1034      1
  1490   1033   1036      1
  1491   1035   1036      1
  1492   1035   1091      1
  1493   1036   1037      1
  1494   1037   1039      1
  1495   1037   1040      1
  1496   1038   1039      1
  1497   1039   1042      1
  1498   1040   1041      1
  1499   1040   1374      1
  1500   1041   1093      1
  1501   1041   1433      1
  1502   1042   1043      1
  1503   1042   1044      1
  1504   1043   1045      1
  1505   1043   1047      1
  1506   1044   1046      1
  1507   1045   1099      1
  1508   1047   1048      1
  1509   1047   1377      1
  1510   1048   1049      1
  1511   1048   1384      1
  1512   1049   1050      1
  1513   1049   1104      1
  1514   1050   1052      1
  1515   1050   1053      1
  1516   1051   1052      1
  1517   1052   1055      1
  1518   1053   1106      1
  1519   1053   1111      1
  1520   1053   1113      1
  1521   1054   1111      1
  1522   1054   1387      1
  1523   1056   1117      1
  1524   1057   1058      1
  1525   1057   1063      1
  1526   1057   1117      1
  1527   1058   1059      1
  1528   1058   1061      1
  1529   1059   1060      1
  1530   1059   1062      1
  1531   1060   1398      1
  1532   1063   1122      1
  1533   1063   1461      1
  1534   1064   1065      1
  1535   1065   1066      1
  1536   1065   1067      1
  1537   1066   1122      1
  1538   1066   1125      1
  1539   1067   1068      1
  1540   1067   1069      1
  1541   1068   1071      1
  1542   1068   1406      1
  1543   1069   1070      1
  1544   1069   1074      1
  1545   1070   1072      1
  1546   1071   1075      1
  1547   1071   1470      1
  1548   1072   1073      1
  1549   1073   1076      1
  1550   1073   1125      1
  1551   1075   1077      1
  1552   1075   1412      1
  1553   1076   1077      1
  1554   1076   1130      1
  1555   1077   1078      1
  1556   1078   1079      1
  1557   1078   1080      1
  1558   1079   1081      1
  1559   1079   1414      1
  1560   1080   1083      1
  1561   1080   1132      1
  1562   1081   1084      1
  1563   1081   1418      1
  1564   1082   1086      1
  1565   1083   1085      1
  1566   1083   1140      1
  1567   1084   1088      1
  1568   1085   1086      1
  1569   1085   1142      1
  1570   1087   1088      1
  1571   1087   1140      1
  1572   1087   1423      1
  1573   1088   1089      1
  1574   1089   1090      1
  1575   1089   1091      1
  1576   1090   1092      1
  1577   1090   1147      1
  1578   1091   1093      1
  1579   1092   1094      1
  1580   1093   1095      1
  1581   1094   1095      1
  1582   1094   1096      1
  1583   1095   1097      1
  1584   1096   1098      1
  1585   1096   1153      1
  1586   1097   1100      1
  1587   1097   1435      1
  1588   1099   1101      1
  1589   1100   1101      1
  1590   1100   1103      1
  1591   1101   1104      1
  1592   1102   1103      1
  1593   1102   1160      1
  1594   1102   1438      1
  1595   1103   1105      1
  1596   1104   1106      1
  1597   1105   1107      1
  1598   1105   1108      1
  1599   1106   1107      1
  1600   1107   1109      1
  1601   1108   1160      1
  1602   1108   1165      1
  1603   1109   1112      1
  1604   1110   1111      1
  1605   1110   1446      1
  1606   1112   1113      1
  1607   1114   1116      1
  1608   1114   1170      1
  1609   1115   1116      1
  1610   1115   1117      1
  1611   1116   1118      1
  1612   1118   1173      1
  1613   1118   1458      1
  1614   1119   1120      1
  1615   1120   1124      1
  1616   1120   1177      1
  1617   1121   1123      1
  1618   1121   1462      1
  1619   1121   1463      1
  1620   1122   1123      1
  1621   1123   1124      1
  1622   1124   1182      1
  1623   1125   1127      1
  1624   1126   1127      1
  1625   1126   1470      1
  1626   1126   1471      1
  1627   1127   1128      1
  1628   1128   1129      1
  1629   1129   1131      1
  1630   1130   1132      1
  1631   1131   1133      1
  1632   1131   1134      1
  1633   1132   1135      1
  1634   1133   1136      1
  1635   1133   1482      1
  1636   1134   1137      1
  1637   1136   1138      1
  1638   1137   1139      1
  1639   1137   1195      1
  1640   1138   1140      1
  1641   1138   1485      1
  1642   1139   1198      1
  1643   1141   1143      1
  1644   1141   1195      1
  1645   1141   1484      1
  1646   1142   1144      1
  1647   1143   1145      1
  1648   1143   1148      1
  1649   1144   1146      1
  1650   1144   1147      1
  1651   1145   1146      1
  1652   1145   1198      1
  1653   1147   1150      1
  1654   1148   1149      1
  1655   1148   1540      1
  1656   1149   1150      1
  1657   1149   1486      1
  1658   1150   1151      1
  1659   1151   1152      1
  1660   1151   1153      1
  1661   1152   1154      1
  1662   1153   1156      1
  1663   1154   1209      1
  1664   1155   1156      1
  1665   1155   1157      1
  1666   1157   1158      1
  1667   1157   1211      1
  1668   1158   1159      1
  1669   1158   1162      1
  1670   1159   1163      1
  1671   1160   1502      1
  1672   1161   1162      1
  1673   1161   1164      1
  1674   1161   1214      1
  1675   1162   1166      1
  1676   1163   1165      1
  1677   1164   1505      1
  1678   1164   1551      1
  1679   1165   1166      1
  1680   1166   1167      1
  1681   1167   1169      1
  1682   1167   1505      1
  1683   1170   1171      1
  1684   1171   1173      1
  1685   1172   1174      1
  1686   1172   1558      1
  1687   1173   1174      1
  1688   1175   1176      1
  1689   1176   1178      1
  1690   1176   1227      1
  1691   1177   1179      1
  1692   1178   1180      1
  1693   1178   1181      1
  1694   1179   1180      1
  1695   1180   1182      1
  1696   1181   1184      1
  1697   1181   1230      1
  1698   1181   1515      1
  1699   1182   1183      1
  1700   1183   1185      1
  1701   1183   1468      1
  1702   1184   1186      1
  1703   1184   1235      1
  1704   1185   1186      1
  1705   1185   1518      1
  1706   1186   1187      1
  1707   1187   1188      1
  1708   1187   1189      1
  1709   1188   1190      1
  1710   1188   1239      1
  1711   1189   1191      1
  1712   1189   1521      1
  1713   1190   1191      1
  1714   1190   1243      1
  1715   1191   1192      1
  1716   1192   1193      1
  1717   1192   1526      1
  1718   1193   1194      1
  1719   1193   1195      1
  1720   1194   1196      1
  1721   1194   1247      1
  1722   1196   1197      1
  1723   1197   1199      1
  1724   1197   1249      1
  1725   1199   1200      1
  1726   1199   1254      1
  1727   1200   1203      1
  1728   1201   1202      1
  1729   1201   1536      1
  1730   1201   1539      1
  1731   1202   1204      1
  1732   1202   1254      1
  1733   1203   1204      1
  1734   1204   1205      1
  1735   1205   1206      1
  1736   1205   1208      1
  1737   1206   1543      1
  1738   1206   1546      1
  1739   1207   1208      1
  1740   1207   1264      1
  1741   1208   1210      1
  1742   1209   1211      1
  1743   1209   1546      1
  1744   1210   1211      1
  1745   1210   1212      1
  1746   1211   1214      1
  1747   1212   1213      1
  1748   1213   1215      1
  1749   1213   1266      1
  1750   1214   1215      1
  1751   1215   1216      1
  1752   1216   1217      1
  1753   1216   1549      1
  1754   1217   1269      1
  1755   1217   1602      1
  1756   1218   1219      1
  1757   1219   1220      1
  1758   1220   1275      1
  1759   1221   1222      1
  1760   1221   1223      1
  1761   1222   1224      1
  1762   1222   1558      1
  1763   1223   1225      1
  1764   1224   1226      1
  1765   1224   1227      1
  1766   1225   1226      1
  1767   1226   1229      1
  1768   1227   1230      1
  1769   1228   1232      1
  1770   1229   1230      1
  1771   1229   1567      1
  1772   1231   1232      1
  1773   1231   1233      1
  1774   1232   1234      1
  1775   1233   1235      1
  1776   1234   1236      1
  1777   1235   1237      1
  1778   1236   1237      1
  1779   1236   1238      1
  1780   1237   1239      1
  1781   1238   1240      1
  1782   1239   1241      1
  1783   1240   1241      1
  1784   1241   1242      1
  1785   1242   1243      1
  1786   1242   1244      1
  1787   1243   1246      1
  1788   1244   1245      1
  1789   1244   1248      1
  1790   1246   1247      1
  1791   1246   1579      1
  1792   1247   1249      1
  1793   1248   1249      1
  1794   1248   1250      1
  1795   1251   1252      1
  1796   1251   1582      1
  1797   1252   1253      1
  1798   1252   1255      1
  1799   1253   1254      1
  1800   1253   1587      1
  1801   1255   1256      1
  1802   1256   1257      1
  1803   1257   1260      1
  1804   1258   1260      1
  1805   1258   1261      1
  1806   1259   1261      1
  1807   1259   1590      1
  1808   1260   1263      1
  1809   1261   1594      1
  1810   1262   1263      1
  1811   1262   1264      1
  1812   1263   1265      1
  1813   1264   1266      1
  1814   1265   1268      1
  1815   1266   1267      1
  1816   1267   1268      1
  1817   1267   1269      1
  1818   1268   1270      1
  1819   1269   1271      1
  1820   1270   1272      1
  1821   1271   1272      1
  1822   1271   1605      1
  1823   1272   1273      1
  1824   1272   1274      1
  1825   1273   1275      1
  1826   1276   1278      1
  1827   1277   1279      1
  1828   1277   1333      1
  1829   1278   1280      1
  1830   1279   1281      1
  1831   1279   1285      1
  1832   1280   1281      1
  1833   1280   1282      1
  1834   1281   1283      1
  1835   1282   1284      1
  1836   1283   1284      1
  1837   1283   1614      1
  1838   1285   1342      1
  1839   1285   1617      1
  1840   1286   1337      1
  1841   1286   1343      1
  1842   1287   1288      1
  1843   1288   1289      1
  1844   1288   1292      1
  1845   1289   1290      1
  1846   1289   1291      1
  1847   1290   1294      1
  1848   1291   1293      1
  1849   1291   1295      1
  1850   1292   1296      1
  1851   1293   1627      1
  1852   1294   1295      1
  1853   1294   1355      1
  1854   1295   1297      1
  1855   1296   1298      1
  1856   1297   1299      1
  1857   1297   1629      1
  1858   1298   1300      1
  1859   1299   1302      1
  1860   1299   1303      1
  1861   1300   1304      1
  1862   1301   1302      1
  1863   1301   1362      1
  1864   1302   1304      1
  1865   1303   1305      1
  1866   1303   1636      1
  1867   1304   1306      1
  1868   1304   1307      1
  1869   1305   1306      1
  1870   1305   1640      1
  1871   1307   1308      1
  1872   1307   1309      1
  1873   1308   1310      1
  1874   1308   1365      1
  1875   1309   1311      1
  1876   1310   1311      1
  1877   1310   1312      1
  1878   1312   1370      1
  1879   1312   1373      1
  1880   1313   1316      1
  1881   1313   1648      1
  1882   1314   1317      1
  1883   1314   1373      1
  1884   1315   1316      1
  1885   1316   1320      1
  1886   1316   1650      1
  1887   1317   1321      1
  1888   1318   1319      1
  1889   1318   1323      1
  1890   1320   1322      1
  1891   1320   1324      1
  1892   1321   1322      1
  1893   1321   1380      1
  1894   1322   1325      1
  1895   1323   1324      1
  1896   1324   1326      1
  1897   1325   1328      1
  1898   1325   1386      1
  1899   1326   1328      1
  1900   1326   1660      1
  1901   1328   1661      1
  1902   1329   1330      1
  1903   1329   1660      1
  1904   1330   1331      1
  1905   1332   1335      1
  1906   1333   1335      1
  1907   1334   1395      1
  1908   1334   1668      1
  1909   1335   1336      1
  1910   1336   1337      1
  1911   1336   1339      1
  1912   1338   1340      1
  1913   1338   1341      1
  1914   1338   1399      1
  1915   1339   1340      1
  1916   1339   1342      1
  1917   1340   1670      1
  1918   1341   1344      1
  1919   1342   1343      1
  1920   1342   1345      1
  1921   1343   1346      1
  1922   1344   1348      1
  1923   1345   1349      1
  1924   1345   1671      1
  1925   1346   1350      1
  1926   1347   1407      1
  1927   1348   1406      1
  1928   1349   1350      1
  1929   1349   1677      1
  1930   1350   1351      1
  1931   1351   1352      1
  1932   1351   1354      1
  1933   1353   1354      1
  1934   1353   1677      1
  1935   1353   1681      1
  1936   1354   1356      1
  1937   1355   1356      1
  1938   1356   1357      1
  1939   1357   1358      1
  1940   1357   1359      1
  1941   1358   1360      1
  1942   1358   1416      1
  1943   1359   1361      1
  1944   1359   1418      1
  1945   1360   1363      1
  1946   1360   1686      1
  1947   1361   1362      1
  1948   1362   1364      1
  1949   1363   1364      1
  1950   1363   1689      1
  1951   1364   1365      1
  1952   1365   1368      1
  1953   1366   1369      1
  1954   1366   1422      1
  1955   1367   1368      1
  1956   1367   1689      1
  1957   1367   1691      1
  1958   1368   1370      1
  1959   1369   1429      1
  1960   1369   1694      1
  1961   1370   1372      1
  1962   1371   1372      1
  1963   1371   1375      1
  1964   1371   1694      1
  1965   1372   1376      1
  1966   1372   1696      1
  1967   1373   1374      1
  1968   1374   1377      1
  1969   1375   1378      1
  1970   1375   1432      1
  1971   1376   1379      1
  1972   1376   1650      1
  1973   1377   1380      1
  1974   1378   1379      1
  1975   1378   1381      1
  1976   1379   1700      1
  1977   1380   1382      1
  1978   1381   1383      1
  1979   1381   1758      1
  1980   1382   1384      1
  1981   1382   1385      1
  1982   1383   1385      1
  1983   1383   1704      1
  1984   1384   1387      1
  1985   1385   1386      1
  1986   1385   1389      1
  1987   1386   1388      1
  1988   1387   1391      1
  1989   1388   1392      1
  1990   1388   1661      1
  1991   1389   1390      1
  1992   1389   1391      1
  1993   1389   1392      1
  1994   1390   1445      1
  1995   1390   1704      1
  1996   1390   1710      1
  1997   1393   1394      1
  1998   1393   1397      1
  1999   1394   1396      1
  2000   1394   1451      1
  2001   1395   1399      1
  2002   1396   1398      1
  2003   1396   1400      1
  2004   1397   1401      1
  2005   1397   1457      1
  2006   1397   1714      1
  2007   1398   1399      1
  2008   1400   1402      1
  2009   1400   1461      1
  2010   1401   1402      1
  2011   1401   1717      1
  2012   1402   1403      1
  2013   1403   1404      1
  2014   1403   1405      1
  2015   1404   1406      1
  2016   1404   1407      1
  2017   1405   1408      1
  2018   1405   1465      1
  2019   1407   1409      1
  2020   1408   1410      1
  2021   1408   1470      1
  2022   1408   1472      1
  2023   1409   1411      1
  2024   1409   1723      1
  2025   1410   1411      1
  2026   1410   1412      1
  2027   1411   1413      1
  2028   1412   1414      1
  2029   1413   1415      1
  2030   1413   1416      1
  2031   1414   1415      1
  2032   1415   1418      1
  2033   1416   1419      1
  2034   1417   1419      1
  2035   1417   1420      1
  2036   1417   1732      1
  2037   1419   1737      1
  2038   1420   1421      1
  2039   1420   1740      1
  2040   1421   1423      1
  2041   1421   1424      1
  2042   1422   1424      1
  2043   1422   1737      1
  2044   1423   1426      1
  2045   1424   1425      1
  2046   1425   1426      1
  2047   1425   1428      1
  2048   1426   1427      1
  2049   1427   1430      1
  2050   1427   1487      1
  2051   1428   1429      1
  2052   1428   1431      1
  2053   1429   1432      1
  2054   1430   1431      1
  2055   1430   1493      1
  2056   1431   1434      1
  2057   1432   1433      1
  2058   1432   1434      1
  2059   1433   1435      1
  2060   1434   1436      1
  2061   1435   1437      1
  2062   1436   1437      1
  2063   1436   1439      1
  2064   1437   1438      1
  2065   1438   1495      1
  2066   1439   1440      1
  2067   1439   1758      1
  2068   1440   1441      1
  2069   1440   1759      1
  2070   1441   1442      1
  2071   1441   1443      1
  2072   1442   1445      1
  2073   1442   1760      1
  2074   1443   1444      1
  2075   1443   1448      1
  2076   1444   1447      1
  2077   1444   1502      1
  2078   1445   1449      1
  2079   1446   1447      1
  2080   1448   1766      1
  2081   1450   1455      1
  2082   1450   1508      1
  2083   1451   1452      1
  2084   1451   1454      1
  2085   1452   1455      1
  2086   1453   1456      1
  2087   1453   1508      1
  2088   1454   1456      1
  2089   1454   1457      1
  2090   1455   1458      1
  2091   1456   1459      1
  2092   1457   1771      1
  2093   1458   1462      1
  2094   1459   1460      1
  2095   1459   1771      1
  2096   1460   1775      1
  2097   1461   1463      1
  2098   1462   1464      1
  2099   1463   1465      1
  2100   1464   1466      1
  2101   1464   1513      1
  2102   1465   1467      1
  2103   1466   1467      1
  2104   1466   1468      1
  2105   1467   1469      1
  2106   1468   1471      1
  2107   1469   1472      1
  2108   1469   1783      1
  2109   1471   1475      1
  2110   1472   1474      1
  2111   1472   1476      1
  2112   1473   1478      1
  2113   1473   1519      1
  2114   1473   1786      1
  2115   1474   1479      1
  2116   1474   1724      1
  2117   1475   1476      1
  2118   1475   1477      1
  2119   1476   1480      1
  2120   1477   1482      1
  2121   1477   1521      1
  2122   1478   1481      1
  2123   1478   1846      1
  2124   1479   1480      1
  2125   1479   1732      1
  2126   1480   1481      1
  2127   1481   1793      1
  2128   1482   1526      1
  2129   1483   1528      1
  2130   1483   1793      1
  2131   1483   1798      1
  2132   1484   1485      1
  2133   1484   1531      1
  2134   1485   1486      1
  2135   1486   1487      1
  2136   1487   1489      1
  2137   1488   1489      1
  2138   1488   1538      1
  2139   1488   1540      1
  2140   1489   1490      1
  2141   1490   1491      1
  2142   1490   1492      1
  2143   1491   1493      1
  2144   1491   1813      1
  2145   1492   1494      1
  2146   1492   1541      1
  2147   1493   1495      1
  2148   1494   1496      1
  2149   1494   1497      1
  2150   1495   1498      1
  2151   1496   1498      1
  2152   1496   1814      1
  2153   1497   1499      1
  2154   1497   1547      1
  2155   1498   1500      1
  2156   1499   1501      1
  2157   1499   1551      1
  2158   1500   1501      1
  2159   1500   1502      1
  2160   1501   1503      1
  2161   1503   1504      1
  2162   1503   1506      1
  2163   1504   1822      1
  2164   1504   1874      1
  2165   1505   1506      1
  2166   1507   1508      1
  2167   1507   1509      1
  2168   1509   1510      1
  2169   1509   1511      1
  2170   1510   1512      1
  2171   1510   1560      1
  2172   1511   1513      1
  2173   1511   1831      1
  2174   1512   1564      1
  2175   1512   1832      1
  2176   1513   1514      1
  2177   1514   1515      1
  2178   1515   1569      1
  2179   1516   1517      1
  2180   1516   1518      1
  2181   1516   1519      1
  2182   1517   1520      1
  2183   1517   1570      1
  2184   1518   1521      1
  2185   1519   1840      1
  2186   1520   1522      1
  2187   1520   1572      1
  2188   1522   1523      1
  2189   1522   1524      1
  2190   1523   1525      1
  2191   1523   1843      1
  2192   1524   1527      1
  2193   1524   1577      1
  2194   1525   1527      1
  2195   1525   1848      1
  2196   1526   1529      1
  2197   1527   1530      1
  2198   1528   1529      1
  2199   1528   1848      1
  2200   1529   1531      1
  2201   1530   1581      1
  2202   1530   1854      1
  2203   1531   1533      1
  2204   1532   1534      1
  2205   1532   1536      1
  2206   1532   1581      1
  2207   1533   1534      1
  2208   1533   1538      1
  2209   1534   1535      1
  2210   1535   1537      1
  2211   1535   1854      1
  2212   1535   1857      1
  2213   1536   1587      1
  2214   1537   1589      1
  2215   1537   1858      1
  2216   1538   1805      1
  2217   1539   1540      1
  2218   1541   1542      1
  2219   1541   1863      1
  2220   1542   1544      1
  2221   1542   1867      1
  2222   1543   1545      1
  2223   1543   1590      1
  2224   1544   1545      1
  2225   1544   1547      1
  2226   1545   1593      1
  2227   1546   1547      1
  2228   1548   1549      1
  2229   1548   1550      1
  2230   1548   1552      1
  2231   1549   1551      1
  2232   1550   1553      1
  2233   1550   1869      1
  2234   1552   1600      1
  2235   1552   1602      1
  2236   1553   1554      1
  2237   1553   1874      1
  2238   1554   1556      1
  2239   1554   1878      1
  2240   1555   1556      1
  2241   1555   1606      1
  2242   1557   1558      1
  2243   1557   1560      1
  2244   1559   1560      1
  2245   1559   1562      1
  2246   1561   1562      1
  2247   1562   1563      1
  2248   1563   1565      1
  2249   1564   1565      1
  2250   1564   1886      1
  2251   1565   1566      1
  2252   1566   1567      1
  2253   1566   1569      1
  2254   1567   1568      1
  2255   1569   1570      1
  2256   1570   1571      1
  2257   1571   1572      1
  2258   1571   1892      1
  2259   1572   1575      1
  2260   1573   1574      1
  2261   1573   1894      1
  2262   1574   1575      1
  2263   1575   1576      1
  2264   1576   1577      1
  2265   1576   1578      1
  2266   1577   1579      1
  2267   1578   1580      1
  2268   1579   1580      1
  2269   1579   1581      1
  2270   1580   1582      1
  2271   1581   1585      1
  2272   1582   1583      1
  2273   1582   1586      1
  2274   1583   1584      1
  2275   1584   1588      1
  2276   1585   1586      1
  2277   1585   1589      1
  2278   1586   1587      1
  2279   1588   1589      1
  2280   1588   1905      1
  2281   1590   1592      1
  2282   1591   1596      1
  2283   1591   1915      1
  2284   1592   1593      1
  2285   1592   1595      1
  2286   1594   1595      1
  2287   1595   1596      1
  2288   1596   1597      1
  2289   1597   1598      1
  2290   1597   1917      1
  2291   1598   1600      1
  2292   1598   1601      1
  2293   1599   1601      1
  2294   1599   1603      1
  2295   1600   1873      1
  2296   1601   1604      1
  2297   1602   1604      1
  2298   1603   1605      1
  2299   1604   1605      1
  2300   1606   1607      1
  2301   1606   1881      1
  2302   1607   1923      1
  2303   1608   1609      1
  2304   1608   1611      1
  2305   1610   1611      1
  2306   1611   1613      1
  2307   1613   1615      1
  2308   1613   1616      1
  2309   1614   1615      1
  2310   1615   1619      1
  2311   1616   1617      1
  2312   1616   1618      1
  2313   1617   1671      1
  2314   1618   1620      1
  2315   1620   1621      1
  2316   1620   1622      1
  2317   1621   1623      1
  2318   1622   1624      1
  2319   1622   1671      1
  2320   1623   1625      1
  2321   1624   1625      1
  2322   1624   1679      1
  2323   1625   1626      1
  2324   1626   1627      1
  2325   1626   1628      1
  2326   1627   1629      1
  2327   1628   1630      1
  2328   1628   1633      1
  2329   1629   1631      1
  2330   1630   1631      1
  2331   1630   1632      1
  2332   1631   1682      1
  2333   1632   1684      1
  2334   1633   1634      1
  2335   1634   1635      1
  2336   1634   1637      1
  2337   1634   1638      1
  2338   1635   1636      1
  2339   1635   1639      1
  2340   1636   1688      1
  2341   1638   1640      1
  2342   1639   1641      1
  2343   1641   1642      1
  2344   1641   1688      1
  2345   1642   1643      1
  2346   1642   1692      1
  2347   1643   1644      1
  2348   1644   1645      1
  2349   1644   1646      1
  2350   1645   1647      1
  2351   1645   1648      1
  2352   1646   1649      1
  2353   1647   1650      1
  2354   1647   1696      1
  2355   1648   1651      1
  2356   1649   1651      1
  2357   1650   1652      1
  2358   1651   1653      1
  2359   1652   1653      1
  2360   1652   1699      1
  2361   1653   1654      1
  2362   1654   1655      1
  2363   1654   1656      1
  2364   1655   1657      1
  2365   1655   1699      1
  2366   1656   1658      1
  2367   1657   1659      1
  2368   1657   1705      1
  2369   1658   1659      1
  2370   1658   1662      1
  2371   1661   1664      1
  2372   1662   1663      1
  2373   1665   1666      1
  2374   1666   1667      1
  2375   1667   1716      1
  2376   1668   1670      1
  2377   1668   1716      1
  2378   1670   1718      1
  2379   1673   1674      1
  2380   1673   1675      1
  2381   1673   1721      1
  2382   1674   1726      1
  2383   1675   1677      1
  2384   1675   1678      1
  2385   1676   1678      1
  2386   1678   1679      1
  2387   1679   1681      1
  2388   1680   1726      1
  2389   1680   1733      1
  2390   1681   1682      1
  2391   1682   1683      1
  2392   1683   1684      1
  2393   1683   1685      1
  2394   1685   1686      1
  2395   1685   1687      1
  2396   1686   1736      1
  2397   1687   1690      1
  2398   1688   1689      1
  2399   1690   1742      1
  2400   1691   1692      1
  2401   1691   1694      1
  2402   1692   1696      1
  2403   1693   1695      1
  2404   1695   1697      1
  2405   1695   1747      1
  2406   1697   1754      1
  2407   1698   1701      1
  2408   1698   1702      1
  2409   1698   1755      1
  2410   1699   1700      1
  2411   1700   1702      1
  2412   1702   1703      1
  2413   1703   1705      1
  2414   1703   1706      1
  2415   1704   1706      1
  2416   1704   1760      1
  2417   1705   1707      1
  2418   1706   1708      1
  2419   1706   1765      1
  2420   1707   1711      1
  2421   1708   1710      1
  2422   1708   1711      1
  2423   1712   1714      1
  2424   1712   1770      1
  2425   1713   1715      1
  2426   1714   1715      1
  2427   1715   1716      1
  2428   1717   1718      1
  2429   1717   1719      1
  2430   1718   1721      1
  2431   1719   1720      1
  2432   1719   1773      1
  2433   1720   1722      1
  2434   1720   1782      1
  2435   1721   1722      1
  2436   1722   1723      1
  2437   1723   1724      1
  2438   1724   1782      1
  2439   1725   1727      1
  2440   1725   1728      1
  2441   1726   1728      1
  2442   1727   1729      1
  2443   1727   1787      1
  2444   1728   1730      1
  2445   1729   1731      1
  2446   1729   1791      1
  2447   1730   1731      1
  2448   1730   1734      1
  2449   1731   1732      1
  2450   1733   1734      1
  2451   1734   1735      1
  2452   1735   1736      1
  2453   1735   1739      1
  2454   1736   1737      1
  2455   1738   1740      1
  2456   1738   1741      1
  2457   1738   1794      1
  2458   1739   1741      1
  2459   1739   1742      1
  2460   1740   1744      1
  2461   1741   1743      1
  2462   1742   1745      1
  2463   1743   1745      1
  2464   1743   1746      1
  2465   1744   1746      1
  2466   1744   1803      1
  2467   1745   1747      1
  2468   1746   1748      1
  2469   1747   1749      1
  2470   1748   1749      1
  2471   1748   1750      1
  2472   1749   1751      1
  2473   1750   1752      1
  2474   1750   1806      1
  2475   1751   1753      1
  2476   1751   1754      1
  2477   1752   1753      1
  2478   1752   1813      1
  2479   1753   1756      1
  2480   1754   1755      1
  2481   1755   1758      1
  2482   1756   1757      1
  2483   1756   1759      1
  2484   1759   1816      1
  2485   1760   1763      1
  2486   1761   1762      1
  2487   1761   1763      1
  2488   1761   1764      1
  2489   1763   1765      1
  2490   1764   1766      1
  2491   1764   1819      1
  2492   1766   1824      1
  2493   1767   1768      1
  2494   1767   1769      1
  2495   1768   1770      1
  2496   1769   1826      1
  2497   1770   1772      1
  2498   1771   1773      1
  2499   1772   1774      1
  2500   1773   1776      1
  2501   1774   1776      1
  2502   1774   1778      1
  2503   1775   1776      1
  2504   1775   1777      1
  2505   1776   1780      1
  2506   1777   1779      1
  2507   1777   1833      1
  2508   1778   1781      1
  2509   1779   1781      1
  2510   1779   1784      1
  2511   1779   1836      1
  2512   1780   1782      1
  2513   1780   1783      1
  2514   1783   1786      1
  2515   1784   1786      1
  2516   1784   1839      1
  2517   1787   1788      1
  2518   1788   1789      1
  2519   1789   1790      1
  2520   1789   1791      1
  2521   1790   1842      1
  2522   1790   1847      1
  2523   1791   1792      1
  2524   1792   1793      1
  2525   1792   1794      1
  2526   1794   1795      1
  2527   1795   1797      1
  2528   1796   1797      1
  2529   1796   1800      1
  2530   1796   1851      1
  2531   1798   1801      1
  2532   1799   1802      1
  2533   1800   1804      1
  2534   1800   1855      1
  2535   1801   1803      1
  2536   1801   1805      1
  2537   1803   1806      1
  2538   1805   1808      1
  2539   1805   1856      1
  2540   1806   1809      1
  2541   1808   1809      1
  2542   1808   1863      1
  2543   1809   1810      1
  2544   1810   1811      1
  2545   1811   1812      1
  2546   1812   1863      1
  2547   1812   1866      1
  2548   1813   1814      1
  2549   1814   1816      1
  2550   1815   1817      1
  2551   1815   1866      1
  2552   1815   1871      1
  2553   1816   1818      1
  2554   1817   1818      1
  2555   1818   1819      1
  2556   1819   1821      1
  2557   1820   1821      1
  2558   1820   1876      1
  2559   1821   1823      1
  2560   1822   1880      1
  2561   1823   1824      1
  2562   1825   1827      1
  2563   1825   1828      1
  2564   1826   1828      1
  2565   1827   1829      1
  2566   1827   1882      1
  2567   1828   1830      1
  2568   1829   1883      1
  2569   1831   1832      1
  2570   1831   1833      1
  2571   1832   1835      1
  2572   1833   1834      1
  2573   1834   1836      1
  2574   1834   1837      1
  2575   1835   1837      1
  2576   1835   1889      1
  2577   1837   1838      1
  2578   1838   1891      1
  2579   1839   1840      1
  2580   1839   1841      1
  2581   1840   1843      1
  2582   1841   1842      1
  2583   1841   1844      1
  2584   1843   1844      1
  2585   1844   1845      1
  2586   1845   1849      1
  2587   1845   1897      1
  2588   1846   1847      1
  2589   1846   1848      1
  2590   1847   1850      1
  2591   1849   1850      1
  2592   1849   1852      1
  2593   1850   1851      1
  2594   1852   1853      1
  2595   1852   1902      1
  2596   1853   1854      1
  2597   1855   1856      1
  2598   1856   1857      1
  2599   1857   1860      1
  2600   1858   1860      1
  2601   1858   1906      1
  2602   1859   1861      1
  2603   1860   1861      1
  2604   1861   1862      1
  2605   1862   1864      1
  2606   1864   1865      1
  2607   1865   1868      1
  2608   1865   1914      1
  2609   1866   1867      1
  2610   1867   1869      1
  2611   1868   1870      1
  2612   1868   1918      1
  2613   1869   1871      1
  2614   1870   1872      1
  2615   1871   1874      1
  2616   1872   1875      1
  2617   1872   1919      1
  2618   1873   1878      1
  2619   1873   1919      1
  2620   1874   1876      1
  2621   1875   1879      1
  2622   1876   1877      1
  2623   1876   1880      1
  2624   1877   1879      1
  2625   1878   1879      1
  2626   1878   1881      1
  2627   1882   1925      1
  2628   1883   1884      1
  2629   1884   1885      1
  2630   1885   1886      1
  2631   1885   1887      1
  2632   1886   1889      1
  2633   1887   1888      1
  2634   1889   1890      1
  2635   1890   1892      1
  2636   1890   1893      1
  2637   1891   1893      1
  2638   1892   1894      1
  2639   1893   1895      1
  2640   1894   1896      1
  2641   1895   1896      1
  2642   1895   1897      1
  2643   1896   1898      1
  2644   1897   1901      1
  2645   1898   1899      1
  2646   1900   1901      1
  2647   1902   1904      1
  2648   1903   1908      1
  2649   1904   1906      1
  2650   1905   1906      1
  2651   1905   1908      1
  2652   1908   1909      1
  2653   1909   1910      1
  2654   1909   1911      1
  2655   1911   1913      1
  2656   1912   1913      1
  2657   1912   1914      1
  2658   1913   1915      1
  2659   1914   1916      1
  2660   1915   1917      1
  2661   1916   1917      1
  2662   1916   1918      1
  2663   1918   1919      1
  2664   1920   1921      1
  2665   1920   1922      1
  2666   1921   1923      1
  2667   1924   1925      1
  2668   1926   1927     du
  2669   1927   1928     du
  2670   1928   1929     du
  2671   1929   1926     du
  2672   1930   1931     du
  2673   1931   1932     du
  2674   1932   1933     du
  2675   1933   1930     du
  2676   1929   1933     du
  2677   1930   1926     du
  2678   1928   1932     du
  2679   1931   1927     du
