@<TRIPOS>MOLECULE
LAMMPS data file via write_data, version 29 Oct 2020, timestep = 1000 > lmp2SYBYLmol2 v3.1 / 26 May 2023 w/remove_PBC_bonds=True
  1945 2679    0    0    0
SMALL
NO_CHARGES
****
Energy = 0

@<TRIPOS>ATOM
      1 C          -13.4789   -10.4158   -11.7428 C       6      r6    -0.0036
      2 C          -12.8221    -9.2225   -11.1979 C       6      r6    -0.0013
      3 C          -12.6458   -11.5477   -12.2498 C       6      r6    -0.0000
      4 C          -11.8520   -11.9497   -11.0715 C       6      r6    -0.0022
      5 C          -11.5226    -9.4750   -10.6402 C       6      r6    -0.0045
      6 C          -11.2794   -10.8874   -10.3317 C       6      r6     0.0067
      7 C          -10.4267   -11.9606    -8.5272 C       7      r7     0.0413
      8 C          -10.1070   -11.2170    -9.6567 C       7      r7    -0.0543
      9 C           -9.2625    -9.1844   -11.4809 C       5      r5     0.0102
     10 C           -8.8050   -11.3024   -10.2007 C       7      r7     0.2743
     11 C           -8.4592   -10.3791   -11.1406 C       5      r5    -0.0663
     12 O           -7.8835   -12.3396    -9.6403 O       7      r7    -0.5357
     13 C           -7.2917    -9.1374   -12.5092 C       6      r6    -0.0040
     14 C           -7.1603   -10.3820   -11.8499 C       6      r6     0.0210
     15 C           -6.4894   -12.7168    -9.9468 C       6      r6     0.2847
     16 C           -5.9883   -10.7073   -11.1452 C       6      r6     0.0287
     17 C           -5.6829   -12.0317   -10.8408 C       6      r6    -0.0695
     18 C           -4.9344    -9.8292   -10.8762 C       6      r6    -0.0054
     19 C           -4.4401   -12.5200   -11.2537 C       6      r6     0.0125
     20 C           -3.7265   -10.1727   -10.0673 C       7      r7     0.0027
     21 C           -2.4424   -10.3137   -10.6815 C       6      r6    -0.0027
     22 C           -2.3462   -10.4154   -12.2058 C       6      r6    -0.0013
     23 C           -1.4619    -9.4212   -12.6881 C       6      r6     0.0019
     24 C           -1.1848    -9.9751   -10.0063 C       6      r6    -0.0008
     25 C           -0.7514   -10.1005    -8.5616 C       6      r6    -0.0012
     26 C           -0.1909    -9.1594   -10.6748 C       6      r6     0.0005
     27 C            0.2687   -12.6249    -8.5749 C       6      r6    -0.0012
     28 C            0.5801   -11.0754    -8.7246 C       6      r6    -0.0000
     29 C            1.2590    -9.4565   -10.4374 C       6      r6     0.0019
     30 C            1.5430   -10.7090    -9.8412 C       6      r6     0.0012
     31 C            2.7300   -11.5933   -10.1475 C       5      r5     0.0017
     32 C            2.8891   -12.9429   -10.6398 C       6      r6     0.0007
     33 C            3.6489    -8.8108    -9.0155 C       5      r5    -0.0009
     34 C            4.0045   -11.3614    -9.4401 C       5      r5    -0.0005
     35 C            4.5060    -8.7668   -12.6565 C       6      r6    -0.0017
     36 C            4.3618   -10.0964    -8.8314 C       5      r5    -0.0016
     37 C            5.0110   -12.3881    -9.8288 C       5      r5     0.0002
     38 C            5.3852    -9.7962   -12.0412 C       6      r6    -0.0018
     39 C            5.8866   -10.9266   -12.7521 C       6      r6     0.0012
     40 C            6.3123    -9.1547   -11.0903 C       6      r6     0.0011
     41 C            6.3701   -12.4549    -9.2137 C       7      r7     0.0002
     42 C            7.2776   -11.3996   -12.6130 C       6      r6    -0.0005
     43 C            7.4758   -12.5417   -11.4594 C       7      r7    -0.0015
     44 C            7.7055    -9.5494   -11.2637 C       6      r6    -0.0006
     45 C            7.6078   -12.3454    -9.9742 C       7      r7     0.0002
     46 C            7.9978    -9.7817   -12.7419 C       6      r6    -0.0015
     47 C            8.3932    -9.9569   -10.0204 C       6      r6     0.0005
     48 C            8.6578   -11.3892    -9.5944 C       6      r6    -0.0024
     49 C            9.8616   -11.6132    -8.7095 C       6      r6     0.0022
     50 C            9.9483    -8.9798    -8.5817 C       6      r6     0.0230
     51 C           10.6043   -10.2861    -8.8022 C       6      r6    -0.0033
     52 H           11.4503   -11.6196   -11.0286 H       0      r0     0.0259
     53 C           11.7023   -10.0903    -9.6219 C       5      r5     0.0039
     54 C           12.3231   -11.2084   -10.5682 C       0      r0    -0.0367
     55 H           12.9596   -11.9414   -10.0007 H       0      r0     0.0238
     56 C           13.1381   -10.5933   -11.7171 C       7      r7     0.0032
     57 C          -13.6435    -4.3355   -10.0511 C       5      r5     0.0002
     58 C          -13.6717    -6.6006   -11.0302 C       5      r5    -0.0031
     59 C          -13.7339    -8.0852   -10.6954 C       0      r0    -0.0033
     60 C          -13.0181    -5.6207   -10.1314 C       5      r5     0.0016
     61 C          -11.6884    -5.7445    -9.4370 C       7      r7    -0.0171
     62 H          -11.2524    -6.7681    -9.6091 H       0      r0     0.0229
     63 C          -10.7258    -4.5120    -9.9804 C       7      r7     0.0034
     64 C          -10.2797    -8.6107   -10.6362 C       7      r7    -0.0077
     65 C           -9.7207    -8.0791    -9.3425 C       6      r6    -0.0045
     66 C           -9.4524    -4.8115    -9.8082 C       0      r0    -0.0012
     67 C           -8.3239    -7.6979    -9.2422 C       6      r6     0.0007
     68 C           -8.1011    -5.0428    -9.5888 C       5      r5     0.0001
     69 C           -7.6376    -6.4321    -9.3639 C       6      r6    -0.0003
     70 C           -6.8989    -6.8763   -12.3967 C       5      r5     0.0009
     71 C           -6.3697    -8.2012   -12.3531 C       6      r6    -0.0010
     72 C           -6.2380    -6.4133    -9.2807 C       6      r6    -0.0014
     73 C           -5.9335    -5.7345   -12.1340 C       6      r6    -0.0018
     74 C           -5.6777    -5.1423    -9.7342 C       6      r6    -0.0004
     75 C           -5.5151    -7.5499    -9.0063 C       6      r6     0.0001
     76 C           -5.1423    -8.5649   -11.6055 C       6      r6    -0.0006
     77 C           -4.9444    -5.3307   -11.0621 C       6      r6    -0.0008
     78 C           -4.5847    -4.9455    -8.7551 C       6      r6    -0.0001
     79 C           -4.0571    -7.7793   -11.6572 C       0      r0     0.0000
     80 C           -4.0918    -7.4313    -8.7935 C       6      r6    -0.0013
     81 C           -3.7711    -4.4889   -11.2881 C       6      r6     0.0006
     82 C           -3.5397    -6.1782    -8.8164 C       6      r6    -0.0018
     83 C           -3.0934    -7.1377   -11.7348 C       0      r0     0.0013
     84 C           -2.5207    -4.9012   -12.0166 C       7      r7    -0.0020
     85 C           -1.9730    -6.2736   -11.8726 C       7      r7     0.0014
     86 C           -2.1617    -6.4405    -8.7941 C       6      r6     0.0010
     87 C           -0.9052    -8.4294   -11.7282 C       6      r6     0.0022
     88 C           -0.7187    -7.0210   -12.0204 C       7      r7    -0.0004
     89 C            0.5668    -6.5457   -12.5533 C       7      r7    -0.0025
     90 C            0.7449    -5.1345    12.7878 C       7      r7    -0.0018
     91 C            1.8748    -4.4182   -12.2262 C       7      r7    -0.0033
     92 C            2.1964    -8.5381   -12.5811 C       7      r7    -0.0005
     93 C            2.3308    -8.6098   -11.1032 C       7      r7    -0.0007
     94 C            2.6527    -4.6500    -9.8657 C       7      r7    -0.0078
     95 C            3.3651    -8.1688   -10.2959 C       7      r7     0.0007
     96 C            4.0850    -4.6428   -10.2080 C       7      r7     0.0418
     97 C            4.6675    -7.3500   -12.3096 C       6      r6     0.0009
     98 C            4.6277    -7.2773   -10.7730 C       6      r6    -0.0008
     99 C            4.8800    -5.8690   -10.2622 C       5      r5    -0.0576
    100 C            5.9049    -7.9631   -10.4743 C       6      r6     0.0019
    101 C            6.0712    -5.8899    -9.7415 C       6      r6     0.2559
    102 O            6.7069    -4.6363    -9.1893 O       6      r6    -0.5250
    103 C            6.8027    -7.1470    -9.8474 C       6      r6    -0.0598
    104 C            8.0144    -7.4971    -9.2311 C       6      r6     0.0331
    105 C            8.0305    -4.9427    -8.6034 C       6      r6     0.2576
    106 C            8.5886    -8.8193    -9.1189 C       6      r6    -0.0080
    107 C            9.1914    -7.0204   -12.6403 C       6      r6    -0.0005
    108 C            9.6539    -5.8639   -11.9146 C       6      r6     0.0045
    109 C            9.5350    -4.4367   -12.5249 C       6      r6    -0.0017
    110 C            9.9652    -8.2586    12.5811 C       7      r7    -0.0015
    111 C           10.1924    -6.5987    -8.7772 C       6      r6     0.0122
    112 C           10.8882    -6.0907   -11.1826 C       7      r7    -0.0003
    113 C           10.7601    -5.6407    -9.7317 C       7      r7    -0.0055
    114 C           10.8158    -7.8567    -8.7445 C       6      r6     0.0137
    115 C           12.0016    -6.0921   -12.1448 C       7      r7    -0.0029
    116 C           11.9395    -8.6599    -9.5166 C       5      r5    -0.0024
    117 C           13.1015    -8.3067   -10.1140 C       0      r0     0.0017
    118 C           13.3824    -5.7801   -11.6327 C       5      r5     0.0001
    119 C           13.5887    -4.3109   -11.3154 C       5      r5    -0.0031
    120 C          -13.8216    -0.7002   -10.0551 C       5      r5     0.0003
    121 C          -13.0265    -3.3284    -9.1345 C       7      r7     0.0010
    122 C          -12.4372    -1.0484    -9.9798 C       5      r5     0.0029
    123 C          -12.1004    -2.4831    -9.8611 C       7      r7     0.0008
    124 C          -11.8115    -0.1106   -10.7282 C       6      r6    -0.0021
    125 C          -11.0919    -3.2419   -10.5996 C       7      r7     0.0007
    126 C          -10.6797    -3.0009   -12.0373 C       5      r5    -0.0028
    127 C           -9.3984    -3.3959   -12.4478 C       5      r5    -0.0036
    128 C           -8.1723    -2.9353   -11.8539 C       6      r6    -0.0033
    129 C           -7.8838    -1.5411   -11.4132 C       6      r6    -0.0009
    130 C           -7.9619    -0.4506   -12.3561 C       6      r6     0.0022
    131 C           -7.4463    -0.0192    -9.5456 C       6      r6     0.0107
    132 C           -7.3350    -1.3985   -10.0673 C       6      r6     0.0044
    133 C           -7.2203    -2.5620    -9.1856 C       6      r6     0.0030
    134 C           -7.0774    -3.8028   -11.3576 C       6      r6    -0.0011
    135 C           -7.0066    -3.9606    -9.8436 C       6      r6     0.0005
    136 C           -6.3946    -4.4001   -12.4639 C       6      r6    -0.0015
    137 C           -4.0012    -3.6378    -9.0036 C       6      r6     0.0037
    138 C           -3.6381    -3.3202   -10.3746 C       6      r6    -0.0026
    139 C           -2.9227    -0.3820   -12.2572 C       6      r6     0.2302
    140 C           -2.6507    -1.7381   -11.8576 C       6      r6    -0.0291
    141 C           -2.6023    -2.2901   -10.4772 C       6      r6     0.0281
    142 C           -1.7606    -1.8337    -9.3594 C       6      r6     0.0148
    143 C           -1.6980    -3.9408   -12.6424 C       7      r7    -0.0019
    144 C           -0.4547    -1.2913    -9.8458 C       6      r6     0.0134
    145 C            0.2076    -0.0187    -9.4663 C       6      r6     0.0127
    146 C            0.1955    -1.8913   -11.0264 C       6      r6    -0.0031
    147 C            0.3755    -1.0892   -12.2573 C       6      r6     0.0097
    148 C            1.3606    -2.6392   -10.5613 C       0      r0    -0.0019
    149 C            1.6546    -4.0413   -10.7572 C       7      r7     0.0005
    150 C            2.4147    -1.8292    -9.8616 C       0      r0    -0.0016
    151 C            3.4871    -1.2897   -10.7182 C       6      r6     0.0062
    152 C            4.4033    -4.0130   -12.4617 C       7      r7     0.0252
    153 C            4.6943    -3.5825   -11.1003 C       7      r7     0.0273
    154 C            4.6380    -2.1283   -10.8619 C       6      r6     0.0223
    155 C            5.9720    -0.0414   -10.4015 C       6      r6     0.0033
    156 C            5.9612    -1.4931   -10.6636 C       6      r6     0.0163
    157 C            7.2277    -2.2358   -10.7408 C       6      r6     0.0444
    158 C            7.8227    -2.3949   -12.0850 C       0      r0     0.0091
    159 C            7.9716    -1.8394    -9.5596 C       6      r6     0.0060
    160 C            8.1067    -3.7803   -12.6240 C       5      r5     0.0180
    161 C            8.2064    -0.3811    -9.4521 C       6      r6    -0.0019
    162 C            8.3703    -1.2549   -12.6804 C       0      r0     0.0114
    163 C           10.4574    -3.3962   -11.9413 C       6      r6    -0.0004
    164 C           10.9034    -4.1741    -9.4933 C       6      r6     0.0001
    165 C           10.9483    -3.2829   -10.6425 C       6      r6     0.0001
    166 C           10.8658    -2.1834   -12.6773 C       6      r6    -0.0038
    167 C           11.4108    -1.9256   -10.4521 C       6      r6    -0.0021
    168 C           11.2647    -1.2395   -11.6413 C       5      r5    -0.0017
    169 C           11.5627     0.1043   -11.7600 C       5      r5    -0.0034
    170 C           12.0176    -1.5962    -9.2100 C       6      r6    -0.0015
    171 C           13.3168    -1.1057    -9.0563 C       5      r5     0.0007
    172 C           13.6347    -3.2751   -12.2251 C       0      r0    -0.0019
    173 C          -13.0885     2.7915   -12.5716 C       7      r7    -0.0002
    174 C          -12.7740     0.6106   -11.4801 C       6      r6     0.0004
    175 C          -12.2646     1.6037   -12.4453 C       6      r6    -0.0007
    176 C          -10.9913     4.2793   -12.7981 C       7      r7    -0.0014
    177 C          -10.4926     0.2572   -10.7836 C       6      r6    -0.0003
    178 C          -10.0175     0.6656   -11.9973 C       6      r6    -0.0067
    179 C           -9.6442     0.4766    -9.6322 C       6      r6    -0.0040
    180 C           -8.7730     3.8736   -11.8419 C       6      r6    -0.0021
    181 C           -8.7076     3.7035   -10.4161 C       6      r6     0.0005
    182 C           -8.5802     0.8568   -11.8881 C       6      r6     0.0005
    183 C           -8.3374     1.0120   -10.2099 C       6      r6     0.0032
    184 C           -8.2657     2.5177    -9.6997 C       6      r6     0.0013
    185 C           -8.0132     1.7513    12.7570 C       6      r6     0.0049
    186 C           -3.1933     3.4451    -9.3619 C       6      r6    -0.0491
    187 C           -2.9233     1.8175   -12.3480 C       6      r6     0.1664
    188 O           -2.5375     0.7411   -11.3229 O       5      r5    -0.4756
    189 C           -2.5170     3.1001   -12.1806 C       6      r6     0.0069
    190 C           -2.0623     2.5335    -9.3354 C       6      r6     0.0793
    191 C           -1.8070     3.8133   -11.0422 C       6      r6     0.0055
    192 C           -1.0840     2.7705   -10.2682 C       6      r6     0.0123
    193 C            0.1302     2.2293   -10.7238 C       6      r6     0.0176
    194 C            0.4270     4.1570   -12.3313 C       6      r6     0.0003
    195 C            0.8339     2.9080   -11.7827 C       6      r6    -0.0055
    196 C            0.8011     0.2155   -12.0139 C       6      r6     0.0140
    197 C            0.8939     0.9011   -10.5866 C       6      r6     0.0012
    198 C            2.4604     1.1635   -10.3889 C       7      r7    -0.0064
    199 C            3.0067     3.1780    -9.0314 C       6      r6     0.0016
    200 C            2.9628     2.5243   -10.3653 C       7      r7    -0.0027
    201 C            3.5084     0.1751   -10.4505 C       6      r6     0.0033
    202 C            4.1934     2.9061   -11.2026 C       0      r0     0.0018
    203 C            4.3131     2.1110   -12.3000 C       0      r0    -0.0082
    204 C            4.7367     1.2691    -8.6492 C       7      r7    -0.0035
    205 C            4.8009     0.7415   -10.0346 C       6      r6     0.0021
    206 C            5.3933     3.7067   -10.8328 C       6      r6    -0.0025
    207 C            6.5829     3.6811   -11.7214 C       6      r6    -0.0005
    208 C            7.3527     0.4595   -10.2095 C       6      r6     0.0030
    209 C            7.5874     2.6255   -11.5280 C       7      r7     0.0009
    210 C            7.6303     1.9155   -10.2167 C       6      r6     0.0008
    211 C            8.4035     2.4291    -9.0688 C       6      r6     0.0010
    212 C            8.5824     2.3060   -12.5465 C       7      r7    -0.0011
    213 C            9.1537     0.2403    -8.4447 C       6      r6     0.0014
    214 C            9.3361     1.0353   -12.5070 C       7      r7    -0.0047
    215 C            9.5471     1.6632    -8.6402 C       6      r6    -0.0002
    216 C           10.5151     1.1097   -11.6820 C       5      r5    -0.0034
    217 C           10.9928     2.0768    -8.6501 C       6      r6    -0.0004
    218 C           11.2428     2.3153   -11.2227 C       5      r5    -0.0021
    219 C           11.4716     2.8377    -9.8128 C       6      r6     0.0019
    220 C           12.6477     3.6853    -9.4920 C       6      r6     0.0002
    221 C           12.5551     2.0733   -11.8020 C       5      r5    -0.0014
    222 C           12.8083     0.6529   -11.7165 C       5      r5    -0.0017
    223 C           13.5871     3.0716   -11.9960 C       7      r7     0.0002
    224 C           13.5878     3.1051    -8.5913 C       6      r6     0.0003
    225 C           13.9943     0.2518   -10.9990 C       5      r5     0.0022
    226 C          -13.7352     5.5843   -10.1790 C       6      r6     0.0013
    227 C          -13.3936     6.8459   -10.9166 C       6      r6     0.0016
    228 C          -12.8630     5.0732    -9.1735 C       6      r6     0.0015
    229 C          -11.9789     7.1983   -11.1955 C       6      r6     0.0010
    230 C          -11.7676     6.0105    -9.0013 C       6      r6     0.0009
    231 C          -11.2470     7.1469   -12.5366 C       5      r5     0.0012
    232 C          -11.1419     6.6898   -10.1264 C       6      r6    -0.0004
    233 C           -9.9578     5.9496   -10.6223 C       6      r6    -0.0019
    234 C           -9.7872     4.7391   -12.5520 C       6      r6    -0.0004
    235 C           -9.7775     6.2431   -12.1173 C       6      r6     0.0001
    236 C           -9.3170     4.9884    -9.7478 C       6      r6    -0.0044
    237 C           -8.4940     6.9262   -12.5828 C       5      r5    -0.0032
    238 C           -7.9450     8.2394   -12.2823 C       6      r6    -0.0022
    239 C           -4.9459     8.1658    -9.0942 C       6      r6    -0.0060
    240 C           -4.3515     5.7359    -8.7781 C       6      r6     0.0033
    241 C           -3.5399     5.7810   -10.1169 C       6      r6    -0.0062
    242 C           -3.4573     8.2346    -9.7346 C       6      r6    -0.0048
    243 C           -2.9305     7.0197   -10.6028 C       6      r6    -0.0047
    244 C           -2.9007     4.5203   -10.2114 C       6      r6     0.0088
    245 C           -2.3922     8.2538    -8.6010 C       6      r6    -0.0041
    246 C           -1.5474     7.1942   -10.9724 C       6      r6    -0.0028
    247 C           -0.8638     8.4364   -11.5756 C       6      r6     0.0036
    248 C           -0.8526     4.9227   -11.8143 C       6      r6    -0.0047
    249 C           -0.5837     6.0865   -10.8707 C       6      r6    -0.0050
    250 C            0.3780     8.7142   -10.8431 C       6      r6    -0.0010
    251 C            0.7683     6.2302   -10.2402 C       6      r6    -0.0039
    252 C            1.2914     7.6189   -10.3335 C       6      r6     0.0007
    253 C            1.8147     5.2454    -9.9221 C       0      r0    -0.0016
    254 C            2.1647     4.3233    -8.7606 C       6      r6    -0.0046
    255 C            2.5017     8.2636    -9.8730 C       6      r6     0.0012
    256 C            2.9468     6.2463   -11.9042 C       0      r0    -0.0014
    257 C            3.0667     5.5452   -10.7097 C       0      r0     0.0001
    258 C            3.9445     7.9962    -9.8893 C       6      r6    -0.0009
    259 C            4.3323     5.6183    -9.8067 C       7      r7     0.0018
    260 C            4.5382     6.8613    -9.1609 C       7      r7     0.0014
    261 C            5.4870     4.7345    -9.7811 C       6      r6     0.0006
    262 C            6.3671     8.4308   -10.6691 C       0      r0    -0.0001
    263 C            6.5211     7.3932   -11.6769 C       7      r7     0.0012
    264 C            6.7935     5.4755    -9.7962 C       6      r6     0.0009
    265 C            7.0033     6.0911   -11.1231 C       6      r6     0.0018
    266 C            7.1552     5.0067   -12.0483 C       6      r6     0.0007
    267 C           11.5776     7.4271   -12.3499 C       5      r5     0.0022
    268 C           12.2205     6.4048    -9.9028 C       6      r6    -0.0006
    269 C           12.3009     7.3825   -11.0315 C       6      r6     0.0007
    270 C           12.4555     6.9828    -8.7454 C       0      r0    -0.0014
    271 C           12.9327     4.9908   -10.3463 C       6      r6     0.0008
    272 C           13.0156     4.4032   -11.8102 C       7      r7     0.0012
    273 C           13.6455     7.8115   -11.4414 C       6      r6     0.0004
    274 C          -13.5649    11.0561    -9.1709 C       0      r0    -0.0044
    275 C          -13.3373    11.0466   -12.0572 C       7      r7    -0.0004
    276 C          -12.1640    11.9326   -12.1649 C       7      r7    -0.0001
    277 C          -11.6283    12.7592   -11.0625 C       7      r7    -0.0012
    278 C          -10.7156    12.1476   -10.0801 C       7      r7     0.0160
    279 C          -10.4508     9.6975    12.7207 C       5      r5    -0.0008
    280 C          -10.5535    12.7968    -8.7236 C       7      r7     0.0177
    281 C          -10.1954    10.8254   -10.4139 C       6      r6     0.0015
    282 C           -9.7953     9.9932   -11.6098 C       6      r6     0.0016
    283 C           -9.3070    10.5156    -9.2684 C       6      r6     0.0130
    284 C           -8.4605     9.4099   -11.5166 C       6      r6     0.0017
    285 C           -7.8807    10.8636    -9.6240 C       6      r6     0.0124
    286 C           -7.3403    10.0349   -10.7318 C       6      r6    -0.0020
    287 C           -6.9051    11.3676    -8.7082 C       6      r6     0.0849
    288 C           -5.9792     9.9984   -11.1599 C       6      r6     0.0009
    289 C           -5.9474    12.2815    -9.4163 C       6      r6    -0.0482
    290 C           -5.6633     9.3907   -12.4037 C       6      r6    -0.0002
    291 C           -5.3125     9.5251    -8.8760 C       6      r6     0.0034
    292 C           -4.7592    10.3335   -10.1232 C       6      r6    -0.0003
    293 C           -4.7378    11.7803    -9.8751 C       6      r6     0.0145
    294 C           -3.8132    12.5181   -10.6588 C       6      r6    -0.0091
    295 C           -3.4760     9.6539   -10.2527 C       6      r6     0.0009
    296 C           -2.5726    11.8660   -10.9783 C       6      r6     0.0019
    297 C           -2.3777    10.5211   -10.3654 C       6      r6     0.0021
    298 C           -1.8329    11.9241   -12.2402 C       6      r6    -0.0029
    299 C           -1.3685    10.4752    -9.3069 C       6      r6     0.0007
    300 C           -1.0732     9.0462    12.7928 C       0      r0    -0.0166
    301 H           -0.2142     9.6659    12.5452 H       0      r0     0.0253
    302 C           -0.3962    12.1540   -12.3213 C       6      r6    -0.0017
    303 C           -0.0446    11.0866    -9.6272 C       0      r0    -0.0005
    304 C            0.2156    12.5134    -9.7763 C       0      r0    -0.0009
    305 C            0.4826    12.6190   -11.2087 C       6      r6    -0.0004
    306 C            0.7734    10.0403   -10.3212 C       5      r5     0.0023
    307 C            1.9204    12.6284   -11.5023 C       6      r6     0.0019
    308 C            2.1099     9.6891    -9.9190 C       6      r6    -0.0001
    309 C            2.5518    11.9439   -12.6880 C       6      r6    -0.0009
    310 C            3.2907    10.6314    -9.9882 C       6      r6    -0.0015
    311 C            3.7578    11.6758    -9.1247 C       5      r5     0.0013
    312 C            3.9045    11.5647    12.7814 C       6      r6    -0.0000
    313 C            4.3163    12.5431   -10.2736 C       6      r6     0.0013
    314 C            4.4132    10.2022   -10.8471 C       6      r6     0.0000
    315 C            4.8008    11.4496   -11.5808 C       6      r6     0.0003
    316 C            4.9191     8.9155   -10.4251 C       6      r6    -0.0006
    317 C            6.2917    11.3249   -12.0059 C       6      r6     0.0004
    318 C            6.9039    12.5201   -11.7518 C       0      r0     0.0017
    319 C            7.5980     9.0469   -10.0909 C       5      r5     0.0008
    320 C            8.0790     9.0172    -8.7591 C       6      r6     0.0007
    321 C            8.6891     9.7493   -10.8158 C       6      r6     0.0010
    322 C            8.9081     9.8967   -12.2632 C       6      r6    -0.0001
    323 C            9.2166     9.9656    -8.6297 C       6      r6    -0.0001
    324 C            9.6611    10.3089    -9.9879 C       6      r6     0.0000
    325 C           10.9224    10.9921   -10.4193 C       6      r6     0.0007
    326 C           11.0917    11.0702   -11.8580 C       6      r6     0.0005
    327 C           11.9130    11.5961    -9.5585 C       6      r6    -0.0034
    328 C           12.3190    11.7617   -12.2603 C       6      r6    -0.0018
    329 C           13.3669    11.3914    -9.9277 C       6      r6    -0.0019
    330 C           13.4951     8.8073   -12.5392 C       5      r5     0.0006
    331 C           13.5063    11.5643   -11.4288 C       6      r6    -0.0009
    332 C          -13.3965   -12.9549    -5.6699 C       6      r6    -0.0031
    333 C          -12.9132   -10.2525    -6.8386 C       6      r6     0.0012
    334 C          -12.4943    -8.9200    -7.0859 C       6      r6    -0.0001
    335 C          -12.1281   -12.2342    -5.8320 C       6      r6    -0.0010
    336 C          -12.0484   -11.3231    -6.9331 C       6      r6    -0.0046
    337 C          -11.3256   -11.8654    -4.7103 C       6      r6    -0.0033
    338 C          -10.7689   -11.3137    -7.3450 C       6      r6    -0.0071
    339 C          -10.4147   -10.7816    -5.0599 C       6      r6    -0.0037
    340 C          -10.1689    -8.7746    -8.1131 C       6      r6    -0.0009
    341 C           -9.7277   -10.8169    -6.5711 C       6      r6    -0.0073
    342 C           -9.2647    -9.6335    -7.4410 C       6      r6     0.0031
    343 C           -8.3483   -11.5902    -6.6984 C       5      r5     0.0300
    344 C           -8.5746   -12.8098    -5.9634 C       5      r5     0.0515
    345 C           -8.0454   -12.9324    -4.7149 C       6      r6     0.0380
    346 C           -7.9951    -9.7786    -7.8936 C       6      r6    -0.0053
    347 C           -7.3171   -10.8896    -7.3383 C       6      r6     0.0701
    348 C           -6.3165    -9.8042    -4.6412 C       0      r0    -0.0011
    349 C           -6.0607    -8.7601    -8.5826 C       6      r6    -0.0004
    350 C           -5.8866   -11.0155    -7.4466 C       6      r6    -0.0494
    351 C           -5.2026    -8.9767    -4.8472 C       0      r0    -0.0013
    352 C           -5.2961    -9.8758    -8.0914 C       6      r6     0.0102
    353 C           -5.2537   -12.1383    -6.9044 C       6      r6     0.2564
    354 C           -3.8777    -9.8466    -8.5396 C       6      r6    -0.0062
    355 C           -3.8551   -12.1435    -7.0257 C       6      r6    -0.0625
    356 C           -3.0946   -10.8559    -7.4000 C       6      r6     0.0073
    357 C           -2.8381   -10.6025    -4.7346 C       0      r0     0.0010
    358 C           -2.8977   -10.0663    -5.9569 C       7      r7    -0.0033
    359 C           -1.7473   -11.1707    -7.8692 C       6      r6    -0.0019
    360 C           -1.1749   -12.4146    -7.8047 C       6      r6     0.0021
    361 C           -0.6173    -8.6981    -8.0238 C       6      r6     0.0005
    362 C            1.1451    -9.6165    -6.5929 C       6      r6    -0.0008
    363 C            1.2648   -10.8299    -7.3459 C       6      r6     0.0004
    364 C            1.5095    -9.3124    -5.1948 C       5      r5     0.0007
    365 C            1.8177   -11.9920    -6.7683 C       5      r5     0.0006
    366 C            1.7272   -12.8594    -4.6141 C       0      r0     0.0011
    367 C            2.4465   -11.9621    -5.3376 C       7      r7     0.0010
    368 C            2.7734    -9.6608    -4.5079 C       5      r5     0.0003
    369 C            3.4242   -10.9118    -4.7535 C       7      r7    -0.0018
    370 C            4.8842   -10.8758    -4.7479 C       7      r7    -0.0005
    371 C            5.5033    -8.6566    -7.3772 C       6      r6     0.0015
    372 C            5.3794   -10.0292    -7.7719 C       5      r5    -0.0019
    373 C            5.5130   -11.7362    -5.7605 C       5      r5    -0.0007
    374 C            5.8566   -11.2529    -7.0896 C       5      r5    -0.0015
    375 C            6.2363   -12.9936    -5.5193 C       5      r5     0.0013
    376 C            6.2191   -12.5270    -7.7249 C       5      r5     0.0005
    377 C           10.6504   -12.7660    -8.4897 C       0      r0    -0.0000
    378 C           11.0242   -12.1633    -5.4510 C       7      r7     0.0201
    379 C           11.1879   -10.8644    -5.5254 C       7      r7    -0.0454
    380 C           11.6547    -9.5797    -5.7904 C       5      r5     0.2361
    381 C           12.3174   -12.8528    -5.7633 C       6      r6    -0.0034
    382 C           12.9714    -9.6071    -6.3332 C       6      r6    -0.0370
    383 C           13.5253   -12.0772    -6.0219 C       6      r6    -0.0038
    384 C           13.8374   -10.6978    -6.4458 C       6      r6     0.0072
    385 C          -13.4160    -7.8238    -7.1367 C       6      r6     0.0111
    386 C          -13.1411    -6.3719    -7.2733 C       6      r6    -0.0064
    387 C          -12.0624    -5.6178    -7.9178 C       0      r0     0.0034
    388 C          -11.1416    -8.3554    -7.0112 C       0      r0    -0.0045
    389 C          -11.0607    -5.0926    -6.9639 C       6      r6     0.0004
    390 C          -10.5079    -7.5600    -5.9344 C       6      r6    -0.0006
    391 C          -10.3338    -6.0868    -6.1645 C       6      r6     0.0004
    392 C           -9.7641    -8.2900    -4.9021 C       6      r6    -0.0015
    393 C           -8.8828    -5.9499    -6.1892 C       6      r6    -0.0025
    394 C           -8.5920    -4.5017    -5.9553 C       6      r6    -0.0015
    395 C           -8.3023    -8.0705    -5.0266 C       6      r6    -0.0025
    396 C           -7.9084    -6.9924    -5.8926 C       6      r6    -0.0008
    397 C           -7.4765    -8.7282    -8.6387 C       6      r6     0.0063
    398 C           -6.8624    -5.5351    -4.3759 C       6      r6    -0.0020
    399 C           -6.5796    -6.3424    -5.5967 C       6      r6    -0.0024
    400 C           -5.8000    -5.5341    -6.4563 C       0      r0    -0.0037
    401 C           -5.0148    -4.7323    -7.1925 C       5      r5    -0.0003
    402 C           -4.1577    -8.0798    -4.9493 C       7      r7     0.0006
    403 C           -3.2246    -8.5059    -8.4978 C       6      r6    -0.0003
    404 C           -2.9690    -8.5839    -5.8263 C       7      r7    -0.0007
    405 C           -2.1898    -5.5440    -4.8701 C       5      r5     0.0022
    406 C           -2.2283    -7.5987    -6.5093 C       6      r6     0.0008
    407 C           -1.9498    -7.8817    -8.0227 C       6      r6     0.0001
    408 C           -1.9283    -6.2336    -6.1411 C       6      r6     0.0002
    409 C           -1.2489    -5.2207    -7.0168 C       6      r6    -0.0011
    410 C           -1.1220    -5.4088    -8.5293 C       6      r6    -0.0024
    411 C            0.4520    -8.4465    -7.1716 C       6      r6     0.0019
    412 C            0.8391    -7.2982    -6.1666 C       6      r6    -0.0003
    413 C            1.1786    -7.9306    -4.8719 C       6      r6    -0.0009
    414 C            1.6678    -6.1505    -6.3473 C       6      r6    -0.0002
    415 C            2.1534    -5.2873    -5.1764 C       6      r6    -0.0000
    416 C            2.2243    -5.0028    -8.4732 C       7      r7     0.0025
    417 C            2.6014    -6.0967    -7.5477 C       7      r7    -0.0013
    418 C            3.9430    -6.6795    -7.5011 C       6      r6     0.0022
    419 C            4.2756    -8.0220    -7.9438 C       6      r6    -0.0026
    420 C            4.8945    -6.0553    -6.5296 C       6      r6     0.0078
    421 C            5.3201    -4.7413    -6.2739 C       6      r6     0.0182
    422 C            5.3778    -7.1246    -5.7527 C       6      r6    -0.0108
    423 C            5.4436    -6.8657    -4.4057 C       6      r6     0.0309
    424 C            6.1674    -4.6438    -5.1535 C       6      r6     0.0006
    425 C            6.2925    -7.9843    -6.3513 C       6      r6     0.0027
    426 C            7.7316    -7.7475    -6.2292 C       5      r5     0.0075
    427 C            8.2642    -7.8540    -4.9109 C       6      r6     0.0244
    428 C            8.4342    -6.7259    -6.9113 C       5      r5     0.0212
    429 C            8.6158    -6.3647    -8.4299 C       6      r6    -0.0563
    430 C            9.1474    -6.8295    -4.6113 C       6      r6     0.0402
    431 C            9.2283    -6.1411    -5.8639 C       5      r5     0.0233
    432 C           10.1654    -5.1405    -6.2554 C       7      r7    -0.0009
    433 O           11.0507    -8.1733    -5.7115 O       5      r5    -0.5083
    434 C           11.5582    -5.1040    -5.7402 C       6      r6     0.0298
    435 C           12.2933    -7.4506    -6.1786 C       6      r6     0.2402
    436 C           12.5510    -6.0336    -6.1745 C       6      r6    -0.0500
    437 C           13.3336    -8.2099    -6.6469 C       6      r6    -0.0469
    438 C           13.8662    -5.4660    -6.6965 C       6      r6     0.0096
    439 C          -13.9911    -4.0584    -6.8357 C       6      r6    -0.0011
    440 C          -13.0870    -0.4061    -7.2820 C       7      r7     0.0021
    441 C          -12.9604    -3.3426    -7.6552 C       0      r0     0.0008
    442 C          -11.8169    -1.0748    -7.2336 C       7      r7    -0.0012
    443 C          -11.7599    -2.5927    -7.1399 C       0      r0    -0.0017
    444 C          -10.6542    -0.1129    -7.1909 C       5      r5    -0.0013
    445 C          -10.7545    -3.6495    -6.9635 C       6      r6    -0.0010
    446 C           -9.2836    -3.3801    -6.6090 C       6      r6    -0.0014
    447 C           -8.1692    -2.4330    -6.6887 C       6      r6    -0.0047
    448 C           -7.6648    -2.0693    -5.3136 C       6      r6    -0.0050
    449 C           -7.7688    -4.4159    -4.6894 C       6      r6     0.0010
    450 C           -7.1629    -2.2947    -7.7624 C       6      r6    -0.0042
    451 C           -6.7985    -0.8508    -5.2215 C       6      r6    -0.0100
    452 C           -6.5514    -0.9523    -7.5126 C       6      r6     0.0092
    453 C           -5.7719    -0.7101    -6.2623 C       6      r6     0.0378
    454 C           -4.5319    -2.6385    -5.7254 C       6      r6    -0.0062
    455 C           -4.4074    -1.2104    -5.9519 C       6      r6     0.0025
    456 C           -4.1596    -3.5393    -6.8318 C       5      r5     0.0007
    457 C           -3.3997    -2.9703    -7.9191 C       6      r6     0.0061
    458 C           -3.3406    -0.3802    -5.3268 C       6      r6     0.0307
    459 C           -2.2829    -1.1641    -4.6286 C       6      r6    -0.0066
    460 C           -2.0881    -2.2900    -8.0132 C       6      r6    -0.0002
    461 C           -1.4566    -4.2836    -4.9629 C       5      r5    -0.0022
    462 C           -1.1844    -3.9160    -6.3697 C       5      r5    -0.0027
    463 C           -1.0013    -2.6275    -7.0907 C       0      r0    -0.0030
    464 C           -0.8377    -0.8746    -4.5959 C       6      r6     0.0003
    465 C           -0.2897    -0.0772    -5.6497 C       6      r6     0.0022
    466 C            0.2966    -1.9981    -7.1221 C       6      r6    -0.0048
    467 C            0.6441    -0.4915    -6.7785 C       6      r6    -0.0028
    468 C            1.3181    -2.5880    -7.9508 C       6      r6    -0.0039
    469 C            2.1522    -3.7711    -7.6473 C       7      r7     0.0020
    470 C            2.2030    -0.4161    -6.4797 C       6      r6    -0.0050
    471 C            2.3493    -1.6344    -8.4344 C       6      r6     0.0006
    472 C            2.5824    -0.5298    -5.0657 C       7      r7    -0.0012
    473 C            2.5812    -3.8963    -5.2766 C       6      r6    -0.0025
    474 C            3.1825    -3.5473    -6.6009 C       7      r7    -0.0042
    475 C            3.1193    -0.7513    -7.5360 C       6      r6    -0.0028
    476 C            3.7818    -0.3908    -4.3629 C       0      r0     0.0079
    477 C            4.6387    -3.4763    -6.7315 C       6      r6     0.0156
    478 C            4.6490    -0.8881    -7.3521 C       7      r7     0.0003
    479 C            5.2292    -2.1429    -6.7415 C       6      r6     0.0079
    480 C            6.1378    -2.1393    -5.6013 C       6      r6     0.0014
    481 C            6.5342    -3.2981    -4.7717 C       6      r6    -0.0047
    482 C            6.7251    -0.9097    -5.1145 C       6      r6    -0.0061
    483 C            8.4727    -2.5578    -8.3848 C       6      r6     0.0446
    484 C            8.7058    -3.9516    -8.0848 C       5      r5    -0.0555
    485 C            9.0941    -1.8790    -7.2670 C       6      r6    -0.0102
    486 C            9.5517    -0.4950    -7.3171 C       6      r6     0.0003
    487 C            9.5652    -2.7876    -6.2329 C       6      r6     0.0016
    488 C            9.8854    -3.9861    -7.1235 C       5      r5     0.0028
    489 C           10.2281    -2.2490    -5.0908 C       6      r6    -0.0036
    490 C           10.3816    -0.7502    -5.0176 C       6      r6    -0.0036
    491 C           10.4251     0.0419    -6.2434 C       6      r6    -0.0008
    492 C           11.1090    -3.7191    -8.1456 C       6      r6    -0.0018
    493 C           11.1002    -3.2849    -4.3588 C       7      r7    -0.0020
    494 C           11.7757    -2.4501    -8.0733 C       6      r6    -0.0001
    495 C           12.0983    -3.8355    -5.2465 C       6      r6    -0.0053
    496 C           12.8505    -2.1709    -7.0870 C       5      r5    -0.0014
    497 C           13.1444    -3.1964    -6.0578 C       6      r6     0.0017
    498 C           13.7848    -1.2515    -7.7063 C       5      r5     0.0011
    499 C          -13.6364     4.0350    -4.8447 C       6      r6     0.0031
    500 C          -13.4584     1.0497    -7.2132 C       6      r6     0.0027
    501 C          -13.2196     3.8746    -8.3609 C       6      r6     0.0004
    502 C          -12.5124     1.9917    -6.6816 C       6      r6     0.0004
    503 C          -12.4583     3.3939    -7.2090 C       6      r6    -0.0007
    504 C          -11.5692     1.6559    -5.5569 C       7      r7    -0.0036
    505 C          -11.6461     4.3056    -6.3578 C       7      r7     0.0003
    506 C          -11.0647     4.1915    -4.9848 C       7      r7    -0.0043
    507 C          -10.4693     0.8414    -6.1343 C       5      r5    -0.0053
    508 C           -9.7117     0.4320    -8.2217 C       6      r6    -0.0036
    509 C           -9.0397     1.1363    -6.1170 C       5      r5     0.0005
    510 C           -8.4988     1.0852    -7.5859 C       6      r6     0.0004
    511 C           -8.4080     1.1567    -4.8196 C       6      r6     0.0069
    512 C           -8.0463     2.4606    -8.3277 C       6      r6     0.0181
    513 C           -7.6251     3.6694    -7.6404 C       6      r6     0.0059
    514 C           -7.2898     0.1287    -8.1016 C       6      r6     0.0285
    515 C           -7.3370     0.2143    -4.3910 C       6      r6     0.0130
    516 C           -6.2478     4.2698    -7.4424 C       6      r6     0.0352
    517 C           -5.0321     4.3842    -8.3699 C       6      r6    -0.0546
    518 O           -4.4413     1.9723    -7.5798 O       6      r6    -0.4748
    519 C           -4.3137     3.2835    -8.4610 C       6      r6     0.2399
    520 C           -3.0860     1.4751    -7.2345 C       6      r6     0.2652
    521 C           -2.7452     0.6237    -6.1244 C       6      r6    -0.0344
    522 C           -2.0078     1.7429    -8.0840 C       6      r6    -0.0520
    523 C           -1.2673     3.6317    -5.4119 C       0      r0     0.0444
    524 C           -0.9367     2.3925    -5.0052 C       0      r0     0.0097
    525 C           -1.1745     1.0427    -5.9908 C       6      r6    -0.0030
    526 C           -0.7593     1.2304    -7.4569 C       5      r5     0.0078
    527 C            0.1637     0.3783    -8.0694 C       5      r5    -0.0047
    528 C            2.7731     3.7826    -5.0133 C       6      r6     0.2314
    529 C            2.7277     3.7044    -6.4835 C       6      r6    -0.0410
    530 C            3.9207     2.3890    -8.1713 C       6      r6     0.0000
    531 C            4.0030     3.3206    -4.6675 C       6      r6    -0.0670
    532 C            3.9545     2.9552    -6.8446 C       6      r6    -0.0040
    533 C            4.9201     2.9239    -5.7231 C       5      r5     0.0076
    534 C            5.3497     0.2874    -7.7557 C       7      r7     0.0010
    535 C            6.4050     2.9176    -5.7391 C       7      r7    -0.0078
    536 C            6.6123     0.8717    -7.0260 C       7      r7    -0.0012
    537 C            6.7564     0.0497    -6.0102 C       7      r7    -0.0053
    538 C            7.0359     3.0136    -4.3636 C       7      r7    -0.0054
    539 C            7.0564     2.3306    -6.9391 C       0      r0    -0.0051
    540 C            7.6766     3.1228    -7.9626 C       0      r0    -0.0020
    541 C           11.4044     2.0070    -5.1267 C       6      r6    -0.0003
    542 C           11.3304     1.2018    -6.3104 C       6      r6    -0.0006
    543 C           11.8092     3.4442    -5.0296 C       7      r7    -0.0011
    544 C           11.9672     1.5732    -7.6688 C       6      r6     0.0001
    545 C           13.1516     3.5196    -4.3524 C       6      r6     0.0022
    546 C           13.4347     1.7343    -7.9143 C       6      r6     0.0024
    547 C          -13.8772     5.3798    -5.3290 C       7      r7    -0.0008
    548 C          -13.8260     7.3925    -7.1923 C       0      r0    -0.0003
    549 C          -13.2656     6.1936    -6.5112 C       7      r7     0.0017
    550 C          -12.9027     8.5217    -7.1840 C       6      r6    -0.0014
    551 C          -11.9818     5.6566    -6.7732 C       7      r7    -0.0015
    552 C          -10.8306     6.0213    -7.8167 C       6      r6    -0.0026
    553 C          -10.4246     7.4972    -7.5491 C       5      r5    -0.0032
    554 C           -9.7557     4.6383    -4.7348 C       5      r5    -0.0029
    555 C           -9.6370     5.0509    -8.3127 C       6      r6    -0.0011
    556 C           -9.2017     7.7454    -6.8942 C       5      r5    -0.0035
    557 C           -8.8352     5.1261    -5.9306 C       6      r6    -0.0009
    558 C           -8.8064     4.5209    -7.3210 C       6      r6    -0.0054
    559 C           -8.8249     6.7491    -5.8733 C       7      r7    -0.0038
    560 C           -8.5149     7.2074    -4.6800 C       0      r0    -0.0003
    561 C           -7.3703     4.7774    -5.4433 C       6      r6     0.0194
    562 C           -6.4317     8.2438    -6.3954 C       6      r6     0.0013
    563 C           -6.1381     4.8138    -6.1833 C       6      r6     0.0346
    564 C           -5.7394     7.1284    -6.9858 C       6      r6    -0.0118
    565 C           -5.4781     7.7448    -4.1453 C       6      r6    -0.0015
    566 C           -5.2315     7.0501    -8.2903 C       6      r6    -0.0041
    567 C           -5.1124     6.1133    -5.9747 C       6      r6     0.0099
    568 C           -4.6558     6.7021    -4.7431 C       6      r6     0.0290
    569 C           -3.7109     5.6314    -6.4856 C       6      r6     0.0001
    570 C           -3.3449     6.3980    -4.3457 C       6      r6     0.0305
    571 C           -3.1945     5.9874    -7.7896 C       6      r6    -0.0065
    572 C           -2.9779     5.3353    -5.3162 C       6      r6     0.0529
    573 C           -2.1552     7.0340    -7.8704 C       5      r5    -0.0051
    574 C           -1.5778     4.9556    -5.6225 C       6      r6    -0.0113
    575 C           -0.8749     7.4995    -7.1408 C       6      r6    -0.0057
    576 C           -0.6963     6.0507    -5.1031 C       6      r6     0.0368
    577 C           -0.4702     8.8160    -7.4284 C       6      r6    -0.0006
    578 C           -0.0179     6.6094    -6.2923 C       6      r6    -0.0003
    579 C            1.4084     6.9998    -6.2265 C       6      r6     0.0155
    580 C            1.7075     8.4684    -6.0643 C       6      r6    -0.0027
    581 C            2.1067     4.6833    -7.3419 C       6      r6     0.0211
    582 C            2.3380     6.0441    -6.6939 C       0      r0     0.0094
    583 C            3.6842     6.3312    -6.1036 C       5      r5     0.0006
    584 C            3.8057     6.3876    -4.6359 C       5      r5     0.0130
    585 C            4.7874     7.0920    -6.6748 C       5      r5    -0.0007
    586 C            5.0967     7.0273    -4.4276 C       6      r6    -0.0109
    587 C            5.4438     7.0884    -7.9847 C       7      r7    -0.0000
    588 C            5.4138     7.8176    -5.5860 C       6      r6    -0.0001
    589 C            6.9214     6.9638    -8.0338 C       7      r7    -0.0022
    590 C            7.4520     5.7140    -8.5250 C       7      r7     0.0008
    591 C            7.8794     8.0525    -7.6588 C       6      r6    -0.0014
    592 C            8.0466     4.5490    -7.7122 C       0      r0     0.0007
    593 C            8.4399     5.2292    -4.4180 C       6      r6     0.0078
    594 C            8.2846     6.7154    -4.5414 C       6      r6     0.0082
    595 C            8.7000     8.2058    -6.4469 C       6      r6    -0.0008
    596 C            8.8012     4.6616    -6.5570 C       0      r0    -0.0048
    597 C            9.2773     7.2318    -5.5002 C       7      r7     0.0011
    598 C            9.4518     4.6978    -5.3821 C       7      r7     0.0008
    599 C           10.7435     7.1053    -5.3635 C       6      r6     0.0121
    600 C           11.0290     4.6232    -5.1986 C       7      r7     0.0028
    601 C           11.5582     5.9213    -5.0490 C       6      r6     0.0155
    602 C           11.5827     8.2831    -5.4194 C       6      r6     0.0006
    603 C           12.0081     8.6938    -6.7613 C       0      r0    -0.0008
    604 C           12.4996     8.4407    -4.2391 C       6      r6     0.0108
    605 C           12.7391     7.6113    -7.5721 C       0      r0    -0.0005
    606 C           13.0356     6.1592    -4.7492 C       6      r6     0.0064
    607 C           13.5103     7.3840    -4.2203 C       6      r6     0.0107
    608 C          -13.5400    12.1534    -4.6428 C       6      r6    -0.0031
    609 C          -12.4242    10.5328    -8.4706 C       6      r6    -0.0014
    610 C          -12.5245     9.1862    -5.9414 C       6      r6    -0.0011
    611 C          -12.2203     9.0775    -8.3329 C       6      r6    -0.0009
    612 C          -12.1792     8.7193    -4.5642 C       5      r5    -0.0009
    613 C          -11.7894    10.4531    -6.0719 C       6      r6    -0.0002
    614 C          -11.6933    11.1915    -7.2677 C       6      r6    -0.0037
    615 C          -10.8503    10.6545    -4.9852 C       6      r6     0.0012
    616 C          -10.8023     8.6556    -8.3218 C       5      r5     0.0004
    617 C          -10.5362    12.0565    -7.4512 C       6      r6     0.0053
    618 C           -9.7850    11.7273    -5.0443 C       6      r6     0.0021
    619 C           -9.5978    12.3192    -6.2931 C       6      r6     0.0088
    620 C           -9.5808     9.4910    -8.2858 C       5      r5    -0.0015
    621 C           -8.5928     9.0236    -7.3125 C       5      r5     0.0016
    622 C           -7.1778     9.1931    -7.2422 C       7      r7     0.0079
    623 C           -6.5141     9.9388    -4.3904 C       7      r7     0.0230
    624 C           -6.4079    10.0932    -8.1462 C       6      r6    -0.0009
    625 C           -6.2911     8.5892    -4.9623 C       6      r6    -0.0051
    626 O           -6.0685    12.9257    -6.2754 O       6      r6    -0.5100
    627 C           -5.4056    11.0138    -4.5216 C       5      r5    -0.0440
    628 C           -5.1546    12.1922    -5.2723 C       6      r6     0.2381
    629 C           -3.7555    12.4599    -5.1490 C       6      r6    -0.0563
    630 C           -3.0051    13.0733    -6.2760 C       6      r6     0.0366
    631 C           -1.5998    12.9194    -6.6883 C       6      r6    -0.0060
    632 C           -1.4476     9.3135    -8.4063 C       6      r6    -0.0020
    633 C           -0.5066    11.9936    -6.1860 C       6      r6    -0.0002
    634 C           -0.2475    11.7583    -4.7698 C       7      r7    -0.0005
    635 C            0.7558    11.8457    -6.9457 C       6      r6    -0.0009
    636 C            0.8671     9.3041    -6.8249 C       6      r6     0.0004
    637 C            1.2568    13.0738    -7.5108 C       6      r6     0.0022
    638 C            1.5298    10.5784    -7.0677 C       6      r6     0.0003
    639 C            2.8892     8.8881    -5.2469 C       6      r6     0.0028
    640 C            3.0161    10.6886    -6.8550 C       6      r6     0.0014
    641 C            3.7428     9.9378    -5.9392 C       6      r6    -0.0015
    642 C            4.0065    11.3967    -7.7204 C       5      r5     0.0005
    643 C            5.1711    10.1738    -6.1019 C       5      r5    -0.0018
    644 C            5.3259    11.2513    -7.1092 C       5      r5     0.0016
    645 C            6.0872     9.0844    -5.5163 C       6      r6    -0.0029
    646 C            6.1895    12.4265    -6.8048 C       5      r5     0.0011
    647 C            6.9790     8.9993    -4.3802 C       6      r6    -0.0033
    648 C            7.8156    10.2096    -4.2560 C       0      r0     0.0008
    649 C            8.8334    10.6110    -5.2280 C       0      r0     0.0005
    650 C            9.1122     9.6332    -6.2782 C       6      r6     0.0013
    651 C            9.3879    11.9068    -5.0419 C       0      r0    -0.0014
    652 C            9.9549   -13.0433    -4.6166 C       0      r0    -0.0007
    653 C            9.9809     9.9838    -7.4160 C       6      r6    -0.0006
    654 C           11.4334    12.2448    -8.2870 C       0      r0    -0.0018
    655 C           11.5099     9.9571    -7.3158 C       0      r0     0.0004
    656 C           11.9459    11.3251    -7.1035 C       0      r0    -0.0021
    657 C           12.4496    11.8161    -5.8932 C       6      r6    -0.0009
    658 C           13.3470    11.3046    -4.8046 C       6      r6    -0.0003
    659 C          -13.3335   -10.3530    -3.0503 C       0      r0     0.0038
    660 C          -12.0361   -10.1680    -2.4965 C       7      r7     0.0001
    661 C          -11.8255   -11.3994    -0.1179 C       6      r6     0.0009
    662 C          -11.5993   -12.7713    -3.5577 C       6      r6    -0.0021
    663 C          -11.6726   -11.2622    -1.5880 C       5      r5    -0.0016
    664 C          -10.9874   -12.3355    -2.2927 C       5      r5    -0.0031
    665 C          -10.7873    -9.4541    -2.8884 C       7      r7     0.0005
    666 C          -10.8171   -12.4876     0.0284 C       6      r6     0.0000
    667 C          -10.5469    12.9802    -1.2081 C       5      r5    -0.0006
    668 C          -10.2837    -8.7913    -1.7025 C       6      r6    -0.0074
    669 C          -10.2323    -9.6048    -4.3008 C       0      r0    -0.0034
    670 C           -7.3886    -8.8756    -4.1502 C       0      r0    -0.0036
    671 C           -7.1265   -12.2146    -3.8472 C       6      r6     0.0133
    672 C           -6.8514   -12.8830    -2.6209 C       6      r6    -0.0033
    673 C           -6.1796   -11.1695    -3.9505 C       5      r5     0.0121
    674 C           -5.7928   -12.3083    -1.9832 C       5      r5     0.0013
    675 C           -5.2832   -11.2021    -2.7810 C       5      r5    -0.0038
    676 C           -4.0043   -10.5169    -2.4714 C       7      r7    -0.0003
    677 C           -3.6461    -9.8196    -1.2430 C       6      r6    -0.0021
    678 C           -2.8622   -11.0006    -3.3468 C       7      r7     0.0003
    679 C           -2.3518    -9.0234    -1.1653 C       6      r6    -0.0003
    680 C           -1.7008   -11.6285    -2.6423 C       5      r5     0.0017
    681 C           -1.4331   -13.0340    -2.5164 C       5      r5     0.0023
    682 C           -1.0273    -9.6496    -1.1212 C       6      r6    -0.0026
    683 C           -0.8411   -10.9790    -1.6434 C       6      r6    -0.0025
    684 C           -0.0842   -13.0512    -1.8873 C       5      r5     0.0018
    685 C            0.2236    -9.1100    -0.5624 C       6      r6    -0.0023
    686 C            0.3376   -11.7600    -1.3205 C       6      r6     0.0022
    687 C            1.4999    -9.8231    -0.6688 C       6      r6    -0.0026
    688 C            1.5287   -11.3067    -0.6131 C       6      r6    -0.0019
    689 C            2.7564    -9.1332    -0.9824 C       6      r6     0.0042
    690 C            2.8877   -11.7929    -0.3354 C       6      r6     0.0047
    691 C            4.0132   -11.2364    -1.2095 C       6      r6     0.0014
    692 C            3.9955    -9.8168    -1.3527 C       6      r6    -0.0034
    693 C            5.2708   -11.9497    -1.0206 C       6      r6     0.0005
    694 C            5.2819    -9.2086    -1.6570 C       7      r7     0.0188
    695 C            5.5497    -8.8877    -3.0491 C       7      r7     0.0238
    696 C            5.8157    -9.9282    -4.1169 C       7      r7    -0.0074
    697 C            5.9484   -12.8601    -1.8565 C       6      r6    -0.0016
    698 C            6.2402    -9.1108    -0.5000 C       7      r7    -0.0138
    699 C            6.4698   -12.4189    -3.1629 C       6      r6     0.0004
    700 C            7.2558   -10.2018    -4.1390 C       6      r6     0.0039
    701 C            7.4415   -11.2917    -3.1732 C       6      r6     0.0019
    702 C            8.1350    -8.9940    -4.0761 C       6      r6     0.0161
    703 C            8.5755   -11.1856    -2.2640 C       6      r6     0.0021
    704 C            9.0586    -9.8440    -1.9903 C       6      r6     0.0029
    705 C            9.6038   -12.2023    -2.1292 C       7      r7    -0.0001
    706 C            9.8983    -9.2676    -1.0345 C       5      r5     0.0027
    707 C           10.2545   -12.3502    -0.7736 C       7      r7    -0.0019
    708 C           10.8660    -9.8937    -0.1296 C       7      r7     0.0000
    709 C           11.2269   -11.2906    -0.4546 C       7      r7    -0.0006
    710 C           12.6468   -11.5959    -0.8035 C       0      r0    -0.0009
    711 C           12.8848   -11.9428    -2.2766 C       0      r0     0.0006
    712 C           13.7983   -11.0311    -2.8149 C       0      r0     0.0017
    713 C           13.6934   -11.7821     0.0489 C       0      r0    -0.0011
    714 C          -11.0407    -8.6886    -0.3849 C       6      r6     0.0060
    715 O          -11.1049    -4.8250    -0.6477 O       6      r6    -0.5102
    716 C          -10.6390    -6.2281    -0.6163 C       6      r6     0.2664
    717 C           -9.3979    -6.6241    -1.1722 C       6      r6    -0.0629
    718 C           -9.0579    -8.0302    -1.5362 C       6      r6     0.0099
    719 C           -8.5173    -5.4741    -1.6474 C       6      r6     0.0507
    720 C           -7.6320    -8.4541    -1.5271 C       0      r0    -0.0051
    721 C           -6.9080    -8.4192    -2.8375 C       0      r0    -0.0036
    722 C           -7.0510    -5.6301    -1.7562 C       7      r7    -0.0063
    723 C           -6.8186    -8.5928    -0.2887 C       5      r5    -0.0031
    724 C           -6.5447    -6.0170    -3.0901 C       7      r7    -0.0009
    725 C           -6.0600    -5.3597    -0.6809 C       7      r7     0.0135
    726 C           -5.8942    -7.3216    -2.8946 C       7      r7    -0.0035
    727 C           -4.7033    -5.1732    -1.2865 C       7      r7     0.0429
    728 C           -4.4399    -7.3179    -2.6220 C       7      r7    -0.0036
    729 C           -3.8831    -6.3622    -1.6683 C       7      r7    -0.0012
    730 C           -3.9686    -6.9897    -3.9605 C       7      r7     0.0007
    731 C           -3.4302    -5.6298    -4.0959 C       7      r7    -0.0002
    732 C           -2.4584    -6.4586    -1.3883 C       7      r7     0.0022
    733 C           -2.3375    -7.6944    -0.5814 C       6      r6     0.0036
    734 C           -1.6278    -5.3950    -0.8568 C       5      r5     0.0210
    735 C           -0.7007    -4.5032    -1.5868 C       6      r6    -0.0036
    736 C            0.5517    -4.4438    -0.8792 C       6      r6    -0.0055
    737 C            2.3207    -7.4399    -4.0746 C       6      r6    -0.0005
    738 C            2.5822    -5.9673    -3.9718 C       6      r6    -0.0020
    739 C            2.7316    -7.7085    -0.6707 C       6      r6    -0.0043
    740 C            3.3246    -8.3871    -3.9599 C       5      r5    -0.0042
    741 C            3.4629    -5.2766    -2.9626 C       6      r6    -0.0085
    742 C            3.8210    -6.7207    -0.6800 C       6      r6     0.0079
    743 C            4.0853    -5.7536    -1.7347 C       5      r5     0.0196
    744 C            4.6600    -4.4906    -1.1052 C       5      r5     0.0094
    745 C            4.6788    -7.8861    -3.6405 C       7      r7     0.0041
    746 C            6.1997    -5.6643    -4.1393 C       6      r6    -0.0510
    747 C            7.0069    -5.4554    -2.9972 C       6      r6     0.2279
    748 O            7.0696    -6.4317    -1.8237 O       5      r5    -0.5054
    749 C            7.6845    -5.3743    -0.7933 C       5      r5     0.2010
    750 C            8.8807    -8.8263    -2.9427 C       6      r6     0.0247
    751 C            9.7233    -7.7117    -2.6842 C       6      r6     0.0306
    752 C            9.9341    -6.5527    -3.4683 C       6      r6     0.0219
    753 C           10.1675    -7.9266    -1.4119 C       6      r6     0.0057
    754 C           10.5394    -5.3946    -2.7479 C       6      r6     0.0001
    755 C           10.9991    -7.0091    -0.7518 C       6      r6     0.0043
    756 C           11.1571    -5.8031    -1.5258 C       6      r6     0.0047
    757 C           12.0626    -5.1916    -0.6508 C       6      r6     0.0031
    758 C          -11.2437    -0.1891    -1.1779 C       5      r5     0.0007
    759 C          -11.2601    -1.6489    -1.0060 C       5      r5     0.0350
    760 C          -10.4388    -2.5036    -1.8681 C       5      r5    -0.0210
    761 C          -10.2019    -3.9115    -1.4788 C       6      r6     0.2760
    762 C           -9.2097    -2.1025    -2.5442 C       5      r5     0.0194
    763 C           -9.0095    -4.2226    -1.9645 C       6      r6    -0.0547
    764 C           -9.0772    -0.7834    -3.0497 C       6      r6    -0.0012
    765 C           -8.0234    -3.0213    -2.6888 C       5      r5     0.0263
    766 C           -7.7194    -3.0461    -4.2232 C       6      r6    -0.0099
    767 C           -7.6500    -0.2859    -3.0278 C       6      r6    -0.0052
    768 C           -7.1263    -1.8915    -0.5623 C       6      r6     0.3121
    769 C           -6.7098    -2.6734    -1.8305 C       6      r6    -0.0500
    770 C           -6.1969    -0.6457    -0.4891 C       6      r6    -0.0556
    771 C           -5.2651    -2.8899    -1.8678 C       6      r6     0.0089
    772 C           -4.8146    -0.7570    -0.7403 C       6      r6     0.0001
    773 C           -4.7617    -4.2055    -2.3471 C       7      r7    -0.0032
    774 C           -4.2530    -1.9599    -1.3227 C       6      r6     0.0179
    775 C           -4.2088    -4.3875    -3.7094 C       7      r7    -0.0021
    776 C           -3.9902    -3.1059    -4.4171 C       6      r6    -0.0033
    777 C           -2.9187    -1.8709    -0.7364 C       6      r6    -0.0500
    778 C           -2.7211    -2.3936    -4.0339 C       6      r6    -0.0026
    779 C           -2.1811    -0.5760    -0.5924 C       6      r6    -0.0003
    780 C           -1.7907    -3.5143    -3.7558 C       7      r7    -0.0018
    781 C           -0.9693    -3.3828    -2.5192 C       6      r6    -0.0008
    782 C            0.1478    -2.4552    -2.7329 C       6      r6    -0.0007
    783 C            0.2499    -1.4876    -3.8106 C       5      r5     0.0019
    784 C            1.4565    -2.8660    -2.3510 C       6      r6     0.0162
    785 C            1.5471    -3.5209    -1.1651 C       6      r6     0.0191
    786 C            1.6219    -1.3130    -4.1454 C       5      r5     0.0079
    787 C            1.9497    -2.7295    -0.0398 C       6      r6    -0.0531
    788 C            2.1218    -1.3139    -0.1870 C       5      r5     0.2797
    789 C            2.2809    -2.2938    -3.3598 C       5      r5     0.0532
    790 O            2.6654    -0.6598    -1.4418 O       0      r0    -0.5180
    791 C            3.1725    -3.2169    -4.1002 C       6      r6    -0.0114
    792 C            4.0715    -3.9765    -3.2042 C       6      r6     0.0068
    793 C            4.8418    -3.4658    -2.0656 C       5      r5     0.0070
    794 C            4.8612    -0.2701    -3.5835 C       6      r6     0.0273
    795 C            5.5486    -2.1280    -0.3890 C       7      r7     0.0581
    796 C            5.6419    -2.2290    -1.7073 C       7      r7     0.0157
    797 C            6.4070    -0.5405    -3.5570 C       6      r6    -0.0042
    798 C            6.8789    -1.8376    -2.6298 C       6      r6     0.0061
    799 C            7.2206    -3.0562    -3.5395 C       6      r6     0.0031
    800 C            7.4986    -4.1956    -2.7370 C       6      r6    -0.0464
    801 C            8.0242    -4.1903    -1.4172 C       6      r6    -0.0371
    802 C            8.2110    -1.8269    -1.8650 C       6      r6     0.0121
    803 C            8.4200    -2.9269    -0.9441 C       6      r6     0.0073
    804 C            9.1163    -0.7764    -2.3244 C       6      r6     0.0017
    805 C           10.5228    -0.8646    -2.5790 C       7      r7    -0.0033
    806 C           10.9191    -4.0196    -3.0613 C       6      r6     0.0003
    807 C           11.4861    -1.8222    -1.9457 C       6      r6    -0.0006
    808 C           11.6756    -3.2658    -2.0132 C       6      r6     0.0004
    809 C           12.3167    -1.1455    -0.9812 C       6      r6    -0.0026
    810 C           12.4977    -3.8502    -0.9900 C       6      r6     0.0032
    811 C           13.3048    -1.7493    -0.1180 C       6      r6    -0.0029
    812 C           13.4697    -3.2116    -0.1671 C       6      r6     0.0097
    813 C          -13.7692     4.4038    -2.3947 C       6      r6     0.0007
    814 C          -12.2353     3.6569    -4.1360 C       6      r6    -0.0006
    815 C          -12.3249     4.0579    -2.5627 C       6      r6     0.0011
    816 C          -11.9706     2.1574    -4.2485 C       5      r5    -0.0061
    817 C          -11.8558     1.7946    -2.8426 C       5      r5    -0.0046
    818 C          -11.9775     2.7856    -1.7910 C       6      r6    -0.0042
    819 C          -11.4338     2.7737    -0.4491 C       6      r6    -0.0028
    820 C          -11.2371     0.4559    -2.5135 C       7      r7     0.0002
    821 C          -10.2222     3.6001    -0.2600 C       6      r6    -0.0039
    822 H           -9.8507     2.6028    -3.8171 H       0      r0     0.0232
    823 C           -9.9545     0.3731    -3.1056 C       6      r6     0.0025
    824 C           -9.2853     1.6626    -3.5893 C       6      r6    -0.0197
    825 C           -8.9025     4.3411    -2.1952 C       6      r6    -0.0097
    826 C           -8.3209     1.8974    -2.3611 C       6      r6     0.0022
    827 C           -8.0348     3.1610    -1.8063 C       6      r6     0.0088
    828 C           -7.6297     0.7136    -1.9517 C       6      r6     0.0059
    829 C           -6.6425     0.6646    -0.8057 C       5      r5     0.0249
    830 C           -6.5902     3.4379    -1.9158 C       6      r6    -0.0622
    831 C           -6.1067     4.1199    -3.1834 C       6      r6     0.3183
    832 C           -5.4244     1.4882    -0.7991 C       5      r5    -0.0082
    833 C           -5.5212     2.9319    -1.1018 C       7      r7     0.0459
    834 O           -4.8861     4.2570    -3.5736 O       0      r0    -0.4663
    835 C           -4.8707     3.8166    -0.1001 C       7      r7    -0.0090
    836 C           -4.2653     0.6361    -0.7491 C       6      r6     0.0058
    837 C           -2.7846     0.7301    -0.7515 C       6      r6    -0.0009
    838 C           -2.3625     4.2650    -0.9081 C       6      r6     0.0149
    839 C           -2.0734     1.9993    -0.4137 C       6      r6    -0.0070
    840 C           -1.8738     3.0329    -1.4446 C       6      r6     0.0149
    841 C           -0.8275     2.4037    -3.6259 C       0      r0     0.0274
    842 C           -0.6393     2.7358    -2.3028 C       0      r0     0.0205
    843 C            0.8352     3.0618    -1.8683 C       5      r5    -0.0463
    844 O            1.6359     4.3125    -4.1155 O       6      r6    -0.5031
    845 C            1.6005     2.2649    -0.8673 C       5      r5     0.0327
    846 C            1.8187     3.5751    -2.7593 C       6      r6     0.2311
    847 C            2.9211     1.9808    -1.4597 C       6      r6    -0.0469
    848 C            3.0637     3.1253    -2.3718 C       6      r6    -0.0359
    849 C            3.3906     0.6499    -1.7042 C       6      r6     0.2914
    850 C            4.3808     3.2784    -3.1502 C       6      r6     0.0228
    851 C            4.4847     0.8313    -2.5651 C       6      r6    -0.0403
    852 C            5.2087     2.0392    -2.8540 C       6      r6     0.0258
    853 C            6.5038     1.9961    -3.4668 C       6      r6    -0.0007
    854 O            6.8291     1.3101    -0.1487 O       5      r5    -0.4490
    855 C            7.1545     0.6546    -3.1692 C       6      r6     0.0208
    856 C            7.5272     2.5997    -0.4275 C       6      r6     0.1703
    857 C            8.4728     0.5541    -2.6716 C       6      r6     0.0135
    858 C            8.7410     2.6633    -1.1861 C       6      r6    -0.0044
    859 C            9.2186     1.7602    -2.2112 C       5      r5     0.0162
    860 C            9.5701     3.8788    -1.3124 C       6      r6    -0.0183
    861 C           10.4676     2.2353    -2.7770 C       5      r5    -0.0066
    862 C           10.8819    -0.0706    -3.7698 C       6      r6    -0.0038
    863 C           10.7281     3.5223    -2.1154 C       5      r5     0.0212
    864 C           11.0522     1.3411    -3.8735 C       6      r6     0.0020
    865 C           11.6745     0.1274    -0.4950 C       6      r6    -0.0006
    866 C           11.9977     4.2379    -2.1167 C       5      r5     0.0136
    867 C           12.6868     1.2811    -0.2826 C       6      r6    -0.0029
    868 C           13.1222     3.7465    -2.8962 C       6      r6    -0.0041
    869 C          -13.9465     7.7273    -0.7969 C       6      r6     0.0059
    870 C          -13.6874     6.7212    -1.7194 C       7      r7     0.0136
    871 C          -13.0486     7.6581    -3.9452 C       0      r0     0.0013
    872 C          -12.5845     7.0332    -2.7498 C       7      r7    -0.0008
    873 H          -11.9980     5.3469    -0.7779 H       0      r0     0.0212
    874 C          -11.4551     5.1300    -1.7531 C       6      r6    -0.0169
    875 C          -11.2868     6.5415    -2.4317 C       7      r7     0.0009
    876 C          -10.2970     7.2932    -1.6484 C       7      r7    -0.0029
    877 C          -10.0903     4.4787    -1.4496 C       6      r6    -0.0000
    878 C           -8.8501     7.0870    -1.2935 C       5      r5    -0.0023
    879 C           -8.7261     4.5969    -3.6506 C       6      r6     0.0069
    880 C           -8.1982     7.7016    -3.4985 C       7      r7    -0.0008
    881 C           -7.7402     6.9499    -2.2158 C       5      r5     0.0005
    882 C           -7.3750     4.4504    -4.0894 C       6      r6    -0.0444
    883 C           -6.8295     7.2803    -0.1415 C       5      r5    -0.0005
    884 C           -6.4836     7.1144    -1.5567 C       5      r5     0.0003
    885 C           -5.0613     7.3851    -1.8801 C       7      r7     0.0134
    886 C           -4.9105     8.3354    -2.9399 C       7      r7    -0.0026
    887 C           -3.9209     7.2571    -0.9490 C       7      r7     0.0045
    888 C           -4.0425     6.0282    -0.1417 C       7      r7     0.0008
    889 C           -3.7872     4.6516    -0.5529 C       7      r7     0.0266
    890 C           -3.0786     8.4403    -0.6190 C       5      r5    -0.0026
    891 C           -2.3679     7.2915    -3.7329 C       6      r6    -0.0046
    892 C           -1.7141     8.4554    -0.1796 C       5      r5    -0.0018
    893 C           -1.0032     6.8587    -3.9633 C       6      r6     0.0064
    894 C           -0.8601     7.2333    -0.3151 C       6      r6     0.0027
    895 C            0.0923     7.6424    -3.3641 C       6      r6     0.0108
    896 C            0.5375     7.2853    -0.7979 C       6      r6    -0.0025
    897 C            0.9106     7.0884    -2.2055 C       6      r6     0.0068
    898 C            2.1986     6.6135    -2.6027 C       6      r6     0.0292
    899 C            2.7740     7.1093    -3.8764 C       0      r0     0.0163
    900 C            3.0141     8.5475    -3.8064 C       0      r0    -0.0077
    901 C            3.0719     6.9953    -0.2446 C       6      r6     0.0292
    902 C            3.2530     6.3081    -1.5838 C       6      r6    -0.0031
    903 C            4.2254     5.4974    -2.0990 C       0      r0     0.0358
    904 C            5.1349     4.6971    -2.6444 C       7      r7     0.0091
    905 C            6.2048     6.7123    -3.5193 C       6      r6     0.0032
    906 C            6.2978     5.2299    -3.3195 C       6      r6     0.0082
    907 C            7.3126     7.5628    -3.9018 C       6      r6     0.0040
    908 C            7.3884     4.3959    -3.8947 C       6      r6    -0.0005
    909 C            9.0096     5.1174    -0.7020 C       6      r6     0.1718
    910 C            9.2674     8.4500    -0.8197 C       6      r6    -0.0531
    911 C            9.5707     6.3474    -0.9084 C       5      r5     0.2077
    912 C           10.3796     8.2342    -1.6662 C       6      r6     0.2396
    913 O           10.7305     6.7501    -1.7238 O       5      r5    -0.5128
    914 C           12.4943     5.1925    -1.2102 C       5      r5     0.0747
    915 C           13.7375     5.4646    -1.7077 C       5      r5    -0.0115
    916 C          -14.0116    10.2375    -0.3507 C       6      r6     0.0017
    917 C          -13.4490    12.2456    -2.1578 C       7      r7    -0.0006
    918 C          -13.2727     9.0352    -0.8101 C       6      r6    -0.0011
    919 C          -13.1954    11.3368    -1.0458 C       5      r5     0.0013
    920 C          -12.6783    12.4505    -3.4468 C       6      r6    -0.0022
    921 C          -11.8715     9.3299    -1.0950 C       6      r6     0.0003
    922 C          -11.8218    10.8222    -1.1386 C       6      r6    -0.0003
    923 C          -11.1632     9.6362    -4.0789 C       5      r5    -0.0013
    924 C          -10.6911     8.6754    -1.7095 C       6      r6    -0.0010
    925 C          -10.5411    11.4769    -1.4618 C       6      r6    -0.0001
    926 C          -10.0952     9.4790    -2.8571 C       6      r6    -0.0015
    927 C           -9.6640    10.8685    -2.3562 C       6      r6    -0.0012
    928 C           -8.7782    12.2279    -4.1387 C       6      r6    -0.0066
    929 C           -8.6043     9.1282    -3.3462 C       5      r5    -0.0018
    930 C           -8.3623    11.4688    -2.9134 C       6      r6     0.0033
    931 C           -7.7224    10.1408    -3.7381 C       5      r5     0.0010
    932 C           -7.2757    11.9989    -2.1079 C       6      r6     0.0006
    933 C           -6.3190    11.6313    -1.2048 C       5      r5    -0.0008
    934 C           -6.2990    10.5133    -0.2514 C       7      r7    -0.0013
    935 C           -5.3703    12.7646    -1.0446 C       5      r5     0.0013
    936 C           -4.2372    10.6653    -3.7147 C       5      r5    -0.0007
    937 C           -3.8235     9.2805    -3.1853 C       7      r7    -0.0012
    938 C           -3.7108     9.6619    -0.1759 C       5      r5    -0.0021
    939 C           -3.2777    11.7058    -3.9392 C       5      r5     0.0030
    940 C           -2.5623     8.7691    -3.6202 C       6      r6    -0.0018
    941 C           -2.0628    11.9703    -3.1818 C       7      r7    -0.0009
    942 C           -1.3220     9.5840    -3.7409 C       6      r6    -0.0013
    943 C           -1.1627    11.0249    -3.8847 C       7      r7    -0.0016
    944 C            0.0289     9.0686    -3.5279 C       6      r6    -0.0054
    945 C            0.8941    12.2386    -2.5345 C       7      r7     0.0011
    946 C            0.9734    10.9518    -1.8943 C       5      r5    -0.0026
    947 C            1.0988     9.8210    -2.8217 C       5      r5    -0.0017
    948 C            0.9605    12.3429    -4.0647 C       7      r7     0.0003
    949 C            2.0123    10.7319    -0.8409 C       6      r6    -0.0002
    950 C            2.4752     9.3718    -2.6926 C       5      r5    -0.0001
    951 C            3.0142     9.8520    -1.4135 C       6      r6    -0.0021
    952 C            4.0321     9.5102    -0.3925 C       6      r6    -0.0044
    953 H            6.1780     9.5859    -1.5818 H       0      r0     0.0228
    954 C            6.6808    12.1150    -1.3231 C       6      r6    -0.0061
    955 C            6.5875    12.6918    -4.1784 C       6      r6    -0.0014
    956 C            6.8970     8.9598    -1.0864 C       6      r6    -0.0158
    957 C            7.3196    11.4951    -3.6461 C       6      r6    -0.0040
    958 C            7.5656    11.4465    -2.2168 C       6      r6    -0.0028
    959 C            8.2393     9.3421    -1.2479 C       6      r6     0.0137
    960 C            8.7154    10.5306    -1.8673 C       6      r6    -0.0077
    961 C           10.0949    10.5505    -2.3523 C       6      r6     0.0050
    962 C           10.0684    13.0053    -3.1117 C       0      r0    -0.0005
    963 C           10.7515    11.8047    -2.5603 C       6      r6    -0.0031
    964 C           10.9528     9.2836    -2.3516 C       6      r6    -0.0470
    965 C           12.1635     9.4474    -3.2168 C       6      r6     0.0258
    966 C           12.2465    11.8030    -2.7631 C       6      r6     0.0031
    967 C           12.7459    10.7147    -3.5367 C       6      r6    -0.0064
    968 C           13.2129    12.7824    -2.2737 C       7      r7    -0.0002
    969 C          -13.1657   -11.9343     0.6857 C       6      r6     0.0009
    970 C          -12.9536   -12.0283     2.2208 C       6      r6    -0.0006
    971 C          -12.7544   -10.4468     2.7960 C       6      r6    -0.0014
    972 C          -12.1984    -9.5972     1.5527 C       6      r6     0.0016
    973 C          -11.7912   -10.2583     4.0471 C       0      r0    -0.0006
    974 C          -11.6846   -12.7980     2.4494 C       6      r6     0.0001
    975 C          -11.5467    -9.8179     0.3802 C       6      r6    -0.0005
    976 C          -10.8881    -9.4181     3.5849 C       0      r0     0.0007
    977 C          -10.7376   -13.0515     1.3791 C       6      r6     0.0009
    978 C           -8.9434   -12.9323     3.9316 C       6      r6     0.0009
    979 C           -8.5572    -8.9401     2.9889 C       6      r6    -0.0038
    980 C           -8.1366    -9.6875     4.1334 C       6      r6    -0.0023
    981 C           -7.6061    -8.9584     1.8265 C       6      r6    -0.0051
    982 C           -7.4230   -10.9574     3.8190 C       6      r6    -0.0022
    983 C           -6.6317    -9.9848     1.5992 C       6      r6    -0.0033
    984 C           -6.5796   -11.0993     2.5746 C       6      r6    -0.0017
    985 C           -6.0748   -12.4869     2.2770 C       6      r6     0.0014
    986 C           -5.9142    -9.6376     0.2889 C       5      r5    -0.0031
    987 C           -4.6886   -13.0513     2.5814 C       6      r6     0.0001
    988 C           -4.4890    -9.6514    -0.0339 C       6      r6    -0.0012
    989 C           -4.1399    -9.5199     3.9498 C       6      r6    -0.0037
    990 C           -4.0039   -11.9606     3.3994 C       6      r6    -0.0011
    991 C           -3.5861    -9.1467     1.0518 C       6      r6    -0.0003
    992 C           -3.7317   -10.6052     2.9469 C       5      r5     0.0005
    993 C           -2.8160   -10.0320     1.9891 C       0      r0    -0.0004
    994 C           -1.2981   -10.0980     2.2018 C       0      r0     0.0003
    995 C           -0.9043   -11.2639     1.9619 C       0      r0    -0.0046
    996 C           -0.3591    -8.9431     2.7002 C       5      r5     0.0014
    997 C           -0.4779   -12.4922     1.7267 C       0      r0    -0.0006
    998 C            2.0766   -10.9646     4.2352 C       6      r6    -0.0038
    999 H            2.4122   -11.6272     1.8160 H       0      r0     0.0230
   1000 C            2.9783   -12.1391     4.2036 C       6      r6    -0.0005
   1001 C            3.2599   -11.7374     1.1170 C       6      r6    -0.0184
   1002 C            3.8000    -9.0002     3.6754 C       6      r6    -0.0005
   1003 C            4.4881   -11.9929     3.9942 C       7      r7    -0.0001
   1004 C            4.5559   -11.5344     1.5074 C       6      r6     0.0053
   1005 C            4.9141   -11.1413     2.8670 C       7      r7    -0.0025
   1006 C            5.0245    -9.7457     3.4188 C       6      r6    -0.0002
   1007 C            5.8479   -11.6054     0.3980 C       6      r6     0.0013
   1008 C            6.2653    -8.9474     3.5797 C       6      r6     0.0015
   1009 C            6.4814   -10.2417     0.4644 C       6      r6     0.0004
   1010 C            7.0251   -12.6303     0.7042 C       6      r6    -0.0007
   1011 C            7.3326    -9.0229     2.5796 C       7      r7     0.0002
   1012 C            7.3842   -10.1549     1.6188 C       6      r6    -0.0027
   1013 C            8.3982   -12.2896     0.9772 C       6      r6    -0.0008
   1014 C            8.4008   -11.1340     1.8470 C       6      r6     0.0011
   1015 C            9.6045   -12.9593     0.4109 C       0      r0    -0.0029
   1016 C            9.5573   -10.7405     2.7807 C       7      r7     0.0005
   1017 C           10.8613   -10.5963     2.1429 C       7      r7    -0.0005
   1018 C           11.0607    -9.4107     1.2348 C       7      r7    -0.0018
   1019 C           12.0545   -11.2182     2.6794 C       7      r7    -0.0004
   1020 C           12.5155   -12.6557     2.4430 C       7      r7     0.0024
   1021 C           12.6884   -10.1991     3.5516 C       7      r7    -0.0009
   1022 C           13.9159   -12.8787     2.7974 C       6      r6     0.0011
   1023 C           14.0022    -9.6517     3.0314 C       5      r5     0.0001
   1024 C          -13.8616    -6.0537     2.3795 C       6      r6    -0.0049
   1025 C          -14.0159    -8.2712     2.6424 C       6      r6     0.0013
   1026 C          -12.8225    -8.2578     1.7219 C       6      r6    -0.0072
   1027 C          -12.3089    -6.0768     2.4579 C       6      r6     0.0045
   1028 C          -12.1775    -7.0984     1.2346 C       6      r6     0.0351
   1029 C          -11.9923    -4.6060     2.4515 C       6      r6     0.0069
   1030 C          -11.5383    -6.7032     3.6333 C       5      r5     0.0075
   1031 C          -11.3492    -7.3127     0.0970 C       6      r6    -0.0432
   1032 C          -10.2136    -7.2020     3.8718 C       5      r5     0.0018
   1033 C           -9.9822    -8.5061     3.1296 C       7      r7    -0.0011
   1034 C           -7.3176    -4.7443     2.9189 C       5      r5     0.0062
   1035 C           -7.3992    -7.8638     0.8859 C       5      r5     0.0001
   1036 C           -7.0703    -6.2086     2.9405 C       5      r5     0.0017
   1037 C           -6.9585    -6.6464     1.4825 C       5      r5    -0.0027
   1038 C           -6.6888    -4.4054     1.6753 C       5      r5     0.0511
   1039 C           -6.3937    -5.5177     0.7213 C       5      r5     0.0203
   1040 C           -6.2644    -6.8216     3.8726 C       0      r0     0.0047
   1041 C           -4.0785    -8.0235     3.9315 C       6      r6     0.0151
   1042 C           -3.5522    -7.3547     2.8653 C       0      r0     0.0332
   1043 C           -3.0327    -7.8155     0.7082 C       6      r6    -0.0069
   1044 C           -2.9639    -6.7707     1.7779 C       7      r7     0.0532
   1045 O           -1.9920    -5.1507     4.1533 O       5      r5    -0.4740
   1046 C           -1.7477    -5.7772     1.7247 C       6      r6    -0.0149
   1047 C           -1.3014    -5.1240     2.8088 C       6      r6     0.2418
   1048 C           -1.0420    -5.5424     0.4669 C       6      r6     0.0070
   1049 C           -0.0989    -4.3464     2.7604 C       6      r6    -0.0358
   1050 C            0.1592    -7.9350     1.8593 C       5      r5    -0.0003
   1051 C            0.2146    -4.8618     0.4341 C       6      r6    -0.0072
   1052 C            0.1533    -8.6705     4.0293 C       5      r5     0.0107
   1053 C            0.4389    -8.0462     0.4032 C       6      r6    -0.0039
   1054 C            1.1311    -7.1474     2.6796 C       5      r5    -0.0018
   1055 C            1.2530    -7.6533     4.0131 C       5      r5     0.0062
   1056 C            1.7196    -7.3169     0.3289 C       6      r6    -0.0043
   1057 C            2.1316    -6.7461     1.6327 C       6      r6    -0.0044
   1058 C            2.6460    -4.8756     3.9771 C       5      r5    -0.0023
   1059 C            3.3447    -6.1056     1.7803 C       6      r6    -0.0028
   1060 C            3.7912    -7.6230     4.1288 C       6      r6    -0.0006
   1061 C            3.7975    -5.1789     2.9869 C       6      r6    -0.0031
   1062 C            4.0721    -5.8946     0.5546 C       6      r6     0.0011
   1063 C            4.7165    -4.5497     0.3225 C       6      r6     0.0038
   1064 C            5.0328    -6.8610     4.1643 C       6      r6    -0.0012
   1065 C            5.1329    -5.5203     3.7272 C       7      r7    -0.0038
   1066 C            6.3842    -4.7545     3.7544 C       7      r7    -0.0017
   1067 C            6.8753    -7.9384    -0.2353 C       7      r7     0.0988
   1068 C            7.5191    -7.1849     0.6728 C       7      r7     0.0061
   1069 C            7.8180    -5.7253     0.5317 C       7      r7    -0.0402
   1070 C            7.6008    -5.2732     3.1302 C       7      r7    -0.0016
   1071 C            8.0490    -4.8769     1.7682 C       7      r7     0.0040
   1072 C            7.9762    -7.8112     2.0334 C       7      r7    -0.0025
   1073 C            8.4177    -6.1912     4.0180 C       5      r5    -0.0017
   1074 C            8.9206    -7.2466     2.9626 C       5      r5     0.0048
   1075 C           10.3170    -7.4312     2.7599 C       5      r5    -0.0011
   1076 C           10.8919    -6.5566     3.8263 C       6      r6    -0.0022
   1077 C           11.1495    -8.0109     1.6620 C       7      r7    -0.0005
   1078 C           11.6325    -7.0868     0.5488 C       5      r5     0.0011
   1079 C           12.2862    -6.4543     3.9924 C       6      r6    -0.0039
   1080 C           12.4495    -5.8685     0.5570 C       6      r6     0.0000
   1081 C           13.4006    -7.0189     3.0689 C       6      r6    -0.0018
   1082 C           13.5528    -5.3108     1.2998 C       6      r6    -0.0005
   1083 C           13.9945    -0.7927     0.7752 C       6      r6    -0.0016
   1084 C          -13.8470    -4.0739     0.8234 C       6      r6     0.0080
   1085 C          -13.8383    -1.7174     3.2190 C       0      r0    -0.0218
   1086 C          -13.3816    -1.4695     1.8978 C       7      r7    -0.0029
   1087 H          -13.1061    -2.2542     3.8567 H       0      r0     0.0211
   1088 C          -12.5780    -3.8613     1.4285 C       6      r6     0.0558
   1089 C          -12.1418    -2.4599     1.4335 C       6      r6    -0.0106
   1090 C          -11.2742    -3.7696     3.3657 C       5      r5    -0.0017
   1091 C          -11.2106    -1.8152     0.4305 C       6      r6     0.0575
   1092 C          -11.1829    -2.6270     2.5869 C       6      r6     0.0174
   1093 C          -10.8454    -0.5785     1.0284 C       6      r6     0.0161
   1094 C          -10.4934    -0.3317     2.4785 C       6      r6     0.0136
   1095 C          -10.5971    -1.5468     3.2353 C       6      r6     0.0049
   1096 O           -8.2338    -2.1174     0.0581 O       0      r0    -0.4667
   1097 C           -7.2509    -3.6809     3.9172 C       6      r6     0.0077
   1098 C           -6.5339    -2.5641     3.2116 C       6      r6     0.0188
   1099 C           -6.0767    -3.1007     1.9060 C       5      r5    -0.0223
   1100 C           -5.3879    -2.0482     3.8864 C       6      r6     0.0003
   1101 C           -4.6642    -2.8668     1.7348 C       5      r5     0.2371
   1102 C           -4.2440    -2.2057     2.8810 C       6      r6    -0.0365
   1103 O           -3.6559    -3.6921     0.9691 O       7      r7    -0.4968
   1104 C           -2.8888    -1.8806     3.3451 C       6      r6     0.0298
   1105 C           -2.6542    -2.6691     0.4275 C       5      r5     0.2329
   1106 C           -1.6719    -1.8073     2.6193 C       7      r7     0.0188
   1107 C           -1.6537    -1.9545     1.1142 C       5      r5    -0.0521
   1108 C           -1.0866    -0.8327     0.3646 C       5      r5    -0.0022
   1109 C           -0.7659    -0.0950     4.2593 C       6      r6    -0.0009
   1110 C           -0.5639    -1.0716     3.1879 C       7      r7    -0.0061
   1111 C            0.0100    -3.7820     4.0304 C       6      r6    -0.0404
   1112 C            0.6683    -4.1521     1.5499 C       6      r6     0.0099
   1113 C            0.7710    -1.6284     3.2394 C       7      r7     0.0086
   1114 C            1.4031    -0.7103     0.9086 C       5      r5    -0.0177
   1115 C            1.4301    -1.7484     1.9508 C       5      r5     0.0067
   1116 C            1.4893    -3.0688     1.2808 C       6      r6     0.0028
   1117 C            2.4297    -3.4457     4.0023 C       5      r5    -0.0019
   1118 C            3.5647    -2.7620     3.3999 C       5      r5    -0.0050
   1119 C            4.1275    -3.7588     2.5005 C       6      r6    -0.0041
   1120 C            4.4336    -1.7748     4.1396 C       7      r7     0.0142
   1121 C            4.8367    -3.5040     1.3152 C       6      r6     0.0068
   1122 C            4.9304    -0.8313     1.7781 C       7      r7     0.2659
   1123 C            5.2742    -2.0629     0.9696 C       7      r7    -0.0388
   1124 C            5.3032    -0.9509     3.1785 C       7      r7    -0.0494
   1125 C            7.6610    -0.4309     3.7431 C       6      r6     0.0157
   1126 C            8.0272    -1.8927     3.5866 C       7      r7    -0.0027
   1127 C            8.4735    -3.5950     1.4494 C       7      r7    -0.0077
   1128 C            8.4414    -2.3580     2.3126 C       7      r7    -0.0019
   1129 C            8.9010    -2.7893     0.3370 C       7      r7    -0.0068
   1130 C            9.0288    -1.5926     1.1629 C       7      r7     0.0129
   1131 C            9.8636    -0.4327     1.4087 C       7      r7     0.0071
   1132 C           10.5933    -0.5564     3.9842 C       5      r5     0.0010
   1133 C           10.7521    -0.1748     0.4758 C       0      r0    -0.0016
   1134 C           11.8099    -1.0029     3.6968 C       0      r0    -0.0020
   1135 C           12.9049    -1.3951     3.5794 C       0      r0     0.0078
   1136 C           13.8002     0.6557     0.5873 C       6      r6    -0.0048
   1137 C          -13.4992     1.9703     2.4463 C       6      r6    -0.0044
   1138 C          -13.2343     1.6110     1.0960 C       5      r5    -0.0047
   1139 C          -12.3778     2.5000     3.0857 C       6      r6    -0.0024
   1140 C          -11.7050     1.7463     0.6824 C       6      r6    -0.0019
   1141 C          -11.1143     2.1359     2.2182 C       6      r6     0.0020
   1142 C          -11.0631     0.4949     0.1022 C       6      r6     0.0061
   1143 C          -10.4603     0.9818     2.9964 C       6      r6     0.0024
   1144 C          -10.1208     3.3139     2.2096 C       6      r6    -0.0011
   1145 C           -9.8220     3.7186     3.5970 C       6      r6     0.0014
   1146 C           -9.4509     3.7727     1.0296 C       6      r6     0.0003
   1147 C           -6.9651     4.2620     1.2855 C       0      r0     0.0021
   1148 C           -5.6178     3.9325     1.2522 C       7      r7     0.0000
   1149 C           -4.7244     4.2202     2.4325 C       7      r7    -0.0017
   1150 C           -4.5949     2.0255     3.6067 C       7      r7    -0.0049
   1151 C           -3.9624     3.3614     3.3697 C       7      r7    -0.0031
   1152 C           -2.5583     3.4622     3.8770 C       6      r6    -0.0035
   1153 C           -1.9339     0.8444     4.1733 C       6      r6    -0.0055
   1154 C           -1.2070     2.1708     0.7994 C       6      r6    -0.0077
   1155 C           -0.9651     3.6024     1.1865 C       6      r6    -0.0012
   1156 C            0.0948    -0.0053     0.7041 C       7      r7     0.0119
   1157 C            0.0528     1.4032     0.8690 C       7      r7     0.0004
   1158 C            0.9201     4.1845     3.1112 C       6      r6    -0.0002
   1159 C            1.3505     2.1793     0.5982 C       0      r0     0.0156
   1160 C            1.9478     3.0688     2.9820 C       0      r0     0.0091
   1161 C            2.3138     2.7108     1.5283 C       0      r0    -0.0010
   1162 C            3.0001     2.7494     3.8174 C       0      r0     0.0182
   1163 C            3.7452     2.8838     1.1461 C       5      r5     0.1758
   1164 O            4.0511     0.2770     1.2614 O       0      r0    -0.4746
   1165 C            4.4765     1.7430     0.9222 C       5      r5     0.1679
   1166 O            4.5312     4.1602     1.0462 O       5      r5    -0.4635
   1167 C            5.7219     2.1362     0.5459 C       5      r5     0.1156
   1168 C            5.7756     3.4039     0.6784 C       5      r5     0.1515
   1169 C            6.0507     1.4732     3.9793 C       6      r6     0.0226
   1170 C            6.2480     0.0197     3.7970 C       6      r6     0.0309
   1171 C            6.9404     3.9407     3.4836 C       6      r6     0.0132
   1172 C            6.9797     2.5061     3.4855 C       6      r6     0.0071
   1173 C            6.9833     3.7413     0.0491 C       6      r6     0.1603
   1174 C            8.1934     1.8842     3.2692 C       6      r6     0.0204
   1175 C            8.5806     0.5266     3.3045 C       6      r6     0.0172
   1176 C            9.3677     2.5221     3.0372 C       6      r6     0.0003
   1177 C            9.3968     3.8701     2.9154 C       6      r6     0.0064
   1178 C            9.8939     0.2634     2.8930 C       5      r5    -0.0030
   1179 C           10.5641     1.6491     3.2985 C       6      r6    -0.0001
   1180 C           11.8126     3.6007     2.2055 C       6      r6    -0.0029
   1181 C           11.8552     2.2292     2.6170 C       6      r6    -0.0020
   1182 C           12.1053     3.7543     0.7282 C       7      r7    -0.0012
   1183 C           12.3949     2.5048     0.1752 C       0      r0    -0.0040
   1184 C           13.1042     1.8559     3.1525 C       6      r6    -0.0076
   1185 C          -11.7198     7.0070     4.2487 C       5      r5     0.0014
   1186 C          -11.4442     7.9557     3.2399 C       5      r5    -0.0007
   1187 C          -10.8098     5.9195     3.9417 C       5      r5    -0.0004
   1188 C          -10.4252     7.4206     2.3195 C       5      r5    -0.0002
   1189 C          -10.0176     8.5104     1.4407 C       5      r5    -0.0002
   1190 C           -9.9152     6.2504     2.7952 C       5      r5    -0.0002
   1191 C           -8.8045     8.7186     0.7233 C       5      r5    -0.0003
   1192 C           -8.5588     5.6524     2.5113 C       0      r0    -0.0004
   1193 C           -8.2758     4.6448     1.3627 C       0      r0    -0.0005
   1194 C           -8.2367     7.6277    -0.0561 C       5      r5    -0.0005
   1195 C           -7.5758     5.9084     3.4278 C       0      r0     0.0011
   1196 C           -5.8663     7.3634     0.9409 C       7      r7     0.0007
   1197 C           -5.0340     8.0954     3.4723 C       0      r0     0.0004
   1198 C           -4.8048     6.3356     1.0742 C       7      r7     0.0001
   1199 C           -4.4390     5.6116     2.3016 C       7      r7     0.0008
   1200 C           -3.5914     7.7651     3.2631 C       6      r6     0.0007
   1201 C           -3.3895     6.3564     3.0645 C       6      r6    -0.0010
   1202 C           -2.1047     5.9905     3.7088 C       6      r6    -0.0018
   1203 C           -1.5299     4.5985     0.2445 C       6      r6    -0.0051
   1204 C           -0.9875     8.1908     2.9700 C       6      r6    -0.0003
   1205 C           -1.0261     6.0054     0.4807 C       6      r6     0.0009
   1206 C           -0.9126     6.8389     3.5108 C       6      r6    -0.0012
   1207 C           -0.0815     4.2895     2.0917 C       6      r6    -0.0005
   1208 C           -0.0426     5.6354     1.4127 C       6      r6    -0.0026
   1209 C            1.2506     5.4901     3.6911 C       6      r6    -0.0017
   1210 C            1.2062     6.3792     1.4037 C       6      r6     0.0068
   1211 C            1.6178     7.0131     0.1193 C       6      r6    -0.0033
   1212 C            1.9320     6.3420     2.6950 C       6      r6     0.0156
   1213 C            2.2352     7.6970     3.1244 C       5      r5    -0.0006
   1214 C            3.7113     7.8477     3.5147 C       6      r6    -0.0025
   1215 C            4.0761     8.0615     0.0233 C       0      r0    -0.0019
   1216 C            4.7289     6.7812     3.0106 C       5      r5     0.0140
   1217 C            5.0632     5.8805     4.0541 C       6      r6     0.0106
   1218 C            5.3633     7.6754     0.5803 C       5      r5     0.0146
   1219 C            5.5818     6.9396     1.8082 C       5      r5     0.0370
   1220 C            5.8306     4.6112     4.1425 C       6      r6     0.0221
   1221 C            6.6351     8.0790    -0.0154 C       6      r6     0.0042
   1222 C            7.0264     6.9650     1.8101 C       5      r5     0.0345
   1223 C            7.5877     6.9437     3.1098 C       5      r5    -0.0127
   1224 C            7.7200     7.4492     0.6387 C       6      r6     0.0563
   1225 O            7.6800     5.0982     0.0561 O       6      r6    -0.4802
   1226 C            8.1862     4.5807     3.1597 C       6      r6     0.0135
   1227 C            8.1328     8.0320     3.8685 C       6      r6    -0.0018
   1228 C            8.4715     5.8992     3.1413 C       6      r6     0.0183
   1229 C            8.8735     7.3144    -0.1425 C       6      r6    -0.0023
   1230 C            9.5145     7.6909     4.0522 C       6      r6    -0.0017
   1231 C            9.6887     6.4998     3.3656 C       6      r6    -0.0070
   1232 C           10.7561     4.4682     2.7814 C       6      r6    -0.0043
   1233 C           10.8364     5.8742     2.8078 C       6      r6     0.0016
   1234 C           11.8995     6.6231     2.1582 C       5      r5    -0.0062
   1235 C           12.1563     8.0790     2.3131 C       6      r6     0.0012
   1236 C           12.2369     5.1095     0.1423 C       7      r7    -0.0047
   1237 C           12.4499     6.3306     0.8572 C       5      r5     0.0166
   1238 C           13.1783     7.5305     0.3897 C       6      r6     0.0109
   1239 C          -13.8708    12.1203     3.5847 C       6      r6    -0.0000
   1240 C          -12.5075    11.6603     3.8763 C       6      r6     0.0005
   1241 C          -12.3108    10.1880     3.9621 C       6      r6     0.0002
   1242 C          -11.4063     9.4091     3.1657 C       5      r5    -0.0004
   1243 C          -11.3683    12.5615     3.6515 C       6      r6     0.0007
   1244 C          -10.4928     9.7091     2.0699 C       5      r5     0.0006
   1245 C           -9.6145    10.8161     1.5596 C       5      r5     0.0010
   1246 C           -9.5777    12.2484     1.7878 C       7      r7     0.0016
   1247 C           -8.6016    10.1703     0.7719 C       5      r5    -0.0005
   1248 C           -8.5361    12.9041     2.6076 C       7      r7     0.0020
   1249 C           -7.2095    10.6506     0.8870 C       7      r7    -0.0005
   1250 C           -7.0991    12.6928     2.2953 C       6      r6     0.0024
   1251 C           -6.6801    11.2636     2.1116 C       6      r6     0.0004
   1252 C           -5.6373    10.7070     2.9378 C       6      r6     0.0010
   1253 C           -5.5415     9.2430     2.6656 C       7      r7     0.0008
   1254 C           -5.5968     8.8153     1.2872 C       7      r7    -0.0009
   1255 C           -5.1695     9.7085     0.1438 C       7      r7    -0.0015
   1256 C           -4.6524    11.6702     3.5638 C       6      r6     0.0010
   1257 C           -4.5863    12.7694     0.1324 C       0      r0     0.0006
   1258 C           -3.8521    12.6750     1.2621 C       5      r5    -0.0004
   1259 C           -3.3429    11.1155     3.0460 C       5      r5     0.0010
   1260 C           -3.1308    11.4269     1.6245 C       5      r5     0.0020
   1261 C           -2.7261    10.4074     0.6104 C       5      r5    -0.0000
   1262 C           -2.5686    10.0006     3.6675 C       0      r0     0.0013
   1263 C           -2.3752     8.6396     3.1472 C       6      r6    -0.0001
   1264 C           -1.4932     9.6649     0.6375 C       5      r5    -0.0021
   1265 C           -0.2923     9.9673     1.4220 C       7      r7    -0.0003
   1266 C            0.1380     8.8519     2.2743 C       7      r7    -0.0024
   1267 C           -0.0207    12.4656     1.4310 C       0      r0     0.0036
   1268 C            0.5148    11.1986     1.2089 C       7      r7    -0.0006
   1269 C            1.5474     8.8993     2.7449 C       5      r5     0.0001
   1270 C            1.8870    11.0234     0.5705 C       6      r6    -0.0021
   1271 C            2.7055     9.8015     2.5269 C       6      r6     0.0002
   1272 C            3.0517    10.7090     1.3874 C       6      r6    -0.0007
   1273 C            3.9466     9.2485     2.9824 C       6      r6     0.0016
   1274 C            4.3460    10.4352     0.7130 C       6      r6    -0.0021
   1275 C            5.3535     9.6731     2.7116 C       6      r6    -0.0036
   1276 C            5.6244    10.4229     1.5616 C       6      r6    -0.0017
   1277 C            6.0715     9.6778     4.1405 C       6      r6    -0.0003
   1278 C            6.7432    12.2116     0.1455 C       6      r6    -0.0032
   1279 C            6.9231    11.0973     1.2105 C       0      r0    -0.0027
   1280 C            7.5680     9.2845     4.1615 C       6      r6    -0.0022
   1281 C            8.2948    11.1744     1.6690 C       0      r0    -0.0018
   1282 C            9.6256    11.4243     2.0002 C       6      r6    -0.0000
   1283 C            9.8275     9.9460     4.0399 C       6      r6    -0.0001
   1284 C           10.4539    12.3164     1.2541 C       6      r6    -0.0007
   1285 C           10.4383    11.0113     3.3940 C       6      r6    -0.0006
   1286 C           11.6584     9.0455     3.2157 C       6      r6    -0.0006
   1287 C           11.8515    10.3923     2.9006 C       6      r6    -0.0006
   1288 C           11.8935    12.4140     1.6467 C       6      r6     0.0004
   1289 C           12.4072    11.0160     1.7450 C       6      r6    -0.0003
   1290 C           12.9789     8.6745     1.1931 C       6      r6    -0.0015
   1291 C           13.1810    10.0811     0.8411 C       6      r6    -0.0001
   1292 C          -13.0399    -9.2785     5.6958 C       0      r0    -0.0003
   1293 C          -12.1296   -10.1872     5.5869 C       0      r0     0.0012
   1294 C          -12.0559   -11.9177     7.6373 C       0      r0    -0.0013
   1295 C          -11.4921   -10.7826     6.8658 C       0      r0     0.0008
   1296 C          -10.2572   -10.1627     7.2689 C       6      r6     0.0030
   1297 C           -9.7921    -9.0467     8.2275 C       6      r6     0.0013
   1298 C           -8.9723    13.0001     6.5254 C       6      r6    -0.0007
   1299 C           -9.1442   -10.5136     6.3069 C       6      r6     0.0005
   1300 C           -8.6321   -11.8167     5.8923 C       6      r6    -0.0001
   1301 C           -8.6317    -9.4071     5.4651 C       6      r6    -0.0063
   1302 C           -8.0093   -12.0408     4.5883 C       6      r6     0.0011
   1303 C           -6.8616   -12.9078     7.1897 C       0      r0     0.0003
   1304 C           -5.9251   -10.1204     8.4714 C       7      r7    -0.0016
   1305 C           -5.8439   -10.5905     7.0863 C       6      r6    -0.0014
   1306 C           -5.8007   -12.1383     6.7677 C       6      r6    -0.0011
   1307 C           -5.4139    -9.6018     6.0962 C       6      r6    -0.0021
   1308 C           -5.0980   -12.6438     5.5755 C       6      r6    -0.0001
   1309 C           -4.6613   -10.2339     5.0107 C       6      r6     0.0006
   1310 C           -4.4546   -11.6901     4.7461 C       6      r6    -0.0008
   1311 C           -2.9367   -12.5187     7.8855 C       5      r5    -0.0002
   1312 C           -2.7977    -9.9754     7.6326 C       5      r5    -0.0011
   1313 C           -2.7436   -11.3602     7.0545 C       5      r5     0.0007
   1314 C           -1.8803    -9.0221     6.9859 C       5      r5     0.0027
   1315 C           -1.7235   -11.2370     6.0764 C       6      r6    -0.0020
   1316 C           -1.2248    -9.8375     5.9422 C       6      r6     0.0046
   1317 C           -1.0952   -12.4747     5.6574 C       6      r6    -0.0003
   1318 C           -0.0559    -9.7318     5.0514 C       6      r6    -0.0014
   1319 C            0.4001   -10.4655     8.3715 C       6      r6    -0.0005
   1320 C            0.1112   -12.2342     4.9360 C       6      r6    -0.0005
   1321 C            0.7238   -10.9447     4.7494 C       6      r6    -0.0014
   1322 C            1.3767    -9.8571     7.4280 C       6      r6    -0.0005
   1323 C            2.5446   -10.5590     6.9721 C       6      r6     0.0004
   1324 C            2.8473   -11.9527     7.4456 C       6      r6    -0.0001
   1325 C            2.9316    -9.8163     4.6126 C       6      r6    -0.0016
   1326 C            3.1025    -9.5695     6.0358 C       6      r6     0.0009
   1327 C            4.0503   -12.3315     7.0792 C       0      r0     0.0009
   1328 C            5.3006   -12.5657     6.4313 C       7      r7     0.0013
   1329 C            5.3935   -12.6291     4.9556 C       7      r7     0.0015
   1330 C            6.6241   -12.5780     8.5886 C       5      r5    -0.0016
   1331 C            6.6216   -12.4662     7.1374 C       7      r7    -0.0003
   1332 C            6.8460    -9.4041     7.4458 C       6      r6     0.0011
   1333 C            7.6094   -11.5669     6.4955 C       7      r7    -0.0035
   1334 C            7.9240   -10.1445     6.7884 C       7      r7     0.0015
   1335 C            8.3246   -12.2344     5.4277 C       6      r6    -0.0017
   1336 C            9.3185    -9.7893     7.1755 C       7      r7    -0.0004
   1337 C            9.6856   -11.8614     4.9933 C       6      r6    -0.0007
   1338 C            9.6037   -10.5843     4.2226 C       7      r7     0.0001
   1339 H            9.3415   -12.7435     7.3765 H       0      r0     0.0234
   1340 C           10.2762    -9.2472     6.2562 C       5      r5     0.0013
   1341 C           10.7070   -12.8969     4.8210 C       6      r6     0.0026
   1342 C           10.5289    -9.6296     4.8759 C       5      r5     0.0002
   1343 C           10.4045   -12.6690     7.8644 C       6      r6    -0.0168
   1344 C           11.6860   -12.8396     7.2341 C       6      r6     0.0031
   1345 C           11.8305   -12.9806     5.7634 C       5      r5    -0.0010
   1346 C           11.9774    -9.4672     4.6171 C       5      r5    -0.0002
   1347 C           12.9979   -13.0131     7.8287 C       6      r6    -0.0014
   1348 C          -14.0071    -8.2953     5.7594 C       0      r0    -0.0062
   1349 C          -13.7344    -7.0546     8.0989 C       6      r6    -0.0576
   1350 C          -13.4592    -6.9667     5.5301 C       0      r0     0.0169
   1351 C          -12.3475    -7.3613     8.0318 C       6      r6     0.2389
   1352 C          -12.0902    -6.7553     4.9821 C       5      r5    -0.0641
   1353 O          -11.1920    -6.5213     7.5004 O       0      r0    -0.5177
   1354 C          -11.1081    -6.6794     5.9962 C       5      r5     0.2437
   1355 C           -9.9731    -7.2016     5.3421 C       5      r5    -0.0444
   1356 C           -8.9066    -8.1213     7.4981 C       6      r6     0.0358
   1357 C           -8.9875    -8.0871     6.0197 C       6      r6     0.0155
   1358 C           -7.9787    -4.7922     8.2951 C       7      r7     0.0101
   1359 C           -7.7769    -7.3461     7.9711 C       7      r7     0.0051
   1360 C           -7.2932    -5.9488     7.6411 C       7      r7     0.0054
   1361 C           -5.9414    -5.8209     7.1365 C       7      r7    -0.0012
   1362 C           -5.4973    -8.0973     6.0182 C       6      r6    -0.0008
   1363 C           -5.3854    -7.4678     4.6570 C       6      r6     0.0085
   1364 C           -5.3808    -7.2101     7.1494 C       7      r7     0.0047
   1365 C           -5.0394    -4.6218     6.7401 C       6      r6     0.0026
   1366 C           -4.3170    -7.2715     8.2071 C       7      r7    -0.0030
   1367 C           -3.6489    -4.4058     6.9259 C       6      r6     0.0193
   1368 C           -3.0158    -6.8071     7.6960 C       6      r6     0.0100
   1369 C           -2.8161    -5.3348     7.7170 C       6      r6     0.0081
   1370 C           -1.7891    -7.5698     7.4066 C       6      r6     0.0109
   1371 C           -1.6292    -4.7115     8.2547 C       6      r6     0.0014
   1372 C           -0.5647    -6.8774     7.6683 C       6      r6     0.0084
   1373 C           -0.5146    -5.5554     8.3582 C       6      r6     0.0015
   1374 C            0.7921    -7.4359     7.7957 C       6      r6    -0.0004
   1375 C            1.4371    -8.4607     6.9859 C       5      r5     0.0016
   1376 C            2.4189    -5.7103     5.1154 C       6      r6     0.0010
   1377 C            2.5149    -7.2645     4.8350 C       6      r6    -0.0005
   1378 C            2.6872    -5.0131     6.4247 C       6      r6    -0.0023
   1379 C            2.7873    -8.1388     6.2807 C       6      r6     0.0009
   1380 C            3.6240    -5.8136     7.2249 C       6      r6     0.0010
   1381 C            3.7985    -7.2281     7.0421 C       6      r6    -0.0005
   1382 C            4.5761    -4.9404     8.0078 C       6      r6    -0.0070
   1383 C            5.0345    -7.7421     7.5963 C       6      r6     0.0003
   1384 C            6.3398    -7.6495     4.3226 C       6      r6     0.0031
   1385 C            6.3642    -8.0759     7.0048 C       6      r6     0.0014
   1386 C            7.2677    -7.0238     6.4445 C       0      r0    -0.0005
   1387 C            7.4442    -7.0364     5.0423 C       7      r7     0.0009
   1388 C            7.9967    -6.2227     7.4899 C       5      r5    -0.0003
   1389 C            8.4189    -4.8467     7.5869 C       6      r6    -0.0006
   1390 C            9.8714    -5.7192     4.4818 C       6      r6    -0.0023
   1391 C           10.2361    -4.5334     5.1670 C       6      r6    -0.0075
   1392 C           11.5557    -8.5620     6.7405 C       5      r5    -0.0001
   1393 C           11.6737    -4.4008     5.5051 C       6      r6     0.0107
   1394 C           11.8946    -8.0200     8.0869 C       7      r7     0.0004
   1395 C           12.5594    -5.5247     5.0970 C       6      r6    -0.0039
   1396 C           12.5330    -8.7495     5.7503 C       5      r5     0.0012
   1397 C           13.3488    -8.1351     8.3993 C       6      r6     0.0079
   1398 C           13.8883    -5.6218     5.6568 C       6      r6     0.0058
   1399 C          -13.7172    -2.1303     6.8495 C       5      r5     0.2141
   1400 C          -13.4162    -4.4462     6.0466 C       6      r6    -0.0003
   1401 C          -12.4015    -1.7527     6.8519 C       0      r0    -0.0340
   1402 C          -12.1552    -4.2309     6.7741 C       5      r5     0.0256
   1403 C          -12.1056    -4.0467     8.2071 C       5      r5     0.0218
   1404 C          -11.0726    -1.2755     6.9369 C       6      r6     0.0157
   1405 C          -10.9003    -3.9547     6.0970 C       5      r5     0.0053
   1406 C          -10.8077    -3.3660     4.7606 C       5      r5    -0.0063
   1407 C          -10.7274    -3.7722     8.5525 C       5      r5     0.0248
   1408 C          -10.4865    -1.9794     4.6019 C       5      r5    -0.0004
   1409 C          -10.4597    -1.0174     5.6549 C       6      r6    -0.0044
   1410 C          -10.4028    -0.5777     8.1093 C       6      r6     0.0003
   1411 C          -10.0710    -3.7084     7.2891 C       5      r5     0.0142
   1412 C           -8.5704    -3.7508     7.4070 C       7      r7    -0.0031
   1413 C           -7.8968    -2.9561     6.3698 C       0      r0    -0.0058
   1414 C           -7.3485    -1.7438     6.7371 C       0      r0    -0.0089
   1415 C           -7.0476    -3.7786     5.3151 C       6      r6    -0.0018
   1416 C           -6.7680    -0.5439     7.1161 C       6      r6    -0.0040
   1417 C           -5.6926    -3.6811     5.8382 C       6      r6     0.0049
   1418 C           -5.3788    -0.6664     7.5906 C       6      r6    -0.0025
   1419 C           -5.0055    -2.5015     5.2245 C       6      r6     0.0070
   1420 C           -3.6734    -2.1731     5.7304 C       6      r6     0.0040
   1421 C           -3.0173    -0.0383     7.6184 C       6      r6     0.0028
   1422 C           -3.0295    -1.1765     8.5924 C       6      r6     0.0003
   1423 C           -3.0388    -1.3084     4.7559 C       6      r6    -0.0026
   1424 C           -2.8779    -3.1751     6.5862 C       6      r6     0.0204
   1425 C           -2.3170    -2.3031     7.9587 C       6      r6    -0.0066
   1426 C           -1.4190    -3.3779     5.8917 C       6      r6    -0.0354
   1427 C           -1.0604    -4.1257     4.7984 C       6      r6     0.2311
   1428 C           -1.0645    -1.6593     7.4398 C       6      r6     0.0014
   1429 C           -0.5424    -0.6776     8.4351 C       6      r6    -0.0047
   1430 C           -0.4464    -2.4576     6.4130 C       6      r6    -0.0003
   1431 C            0.9759    -2.0658     5.7873 C       6      r6    -0.0076
   1432 C            1.0748    -2.6932     4.2755 C       6      r6     0.0042
   1433 C            1.1752    -0.5924     5.8013 C       6      r6    -0.0032
   1434 C            2.0432    -0.1131     6.7054 C       6      r6     0.0000
   1435 C            2.1802    -2.4395     6.6986 C       6      r6     0.0009
   1436 C            2.6276    -1.2753     7.3698 C       6      r6    -0.0067
   1437 C            2.8662    -3.6351     6.8067 C       6      r6    -0.0019
   1438 C            3.6801    -1.2670     8.4074 C       6      r6     0.0391
   1439 C            4.2354    -3.5019     7.5691 C       6      r6     0.0068
   1440 C            4.8723    -2.3432     5.3100 C       0      r0    -0.0030
   1441 C            5.2717    -2.8778     6.4415 C       0      r0     0.0025
   1442 C            6.5174    -3.6764     6.2866 C       7      r7    -0.0007
   1443 H            6.5278    -0.7277     8.2627 H       0      r0     0.0423
   1444 C            6.8102    -3.7816     4.8247 C       7      r7    -0.0044
   1445 C            7.6656    -3.6667     7.2108 C       6      r6    -0.0022
   1446 C            8.0404    -3.0521     4.5855 C       7      r7     0.0027
   1447 C            8.4919    -2.4486     7.4378 C       6      r6     0.0089
   1448 C            9.3240    -3.3537     5.2387 C       7      r7    -0.0057
   1449 C            9.4876    -2.3893     6.3893 C       7      r7     0.0139
   1450 C           10.4921    -0.1493     6.7068 C       0      r0     0.0712
   1451 C           10.7304    -1.6320     6.7822 C       7      r7    -0.0495
   1452 C           12.0444    -2.0515     6.7622 C       5      r5     0.2348
   1453 C           12.3147    -3.3227     6.2247 C       6      r6    -0.0474
   1454 O           13.1741    -1.1546     7.2307 O       5      r5    -0.4762
   1455 C           13.7982    -3.3987     6.3305 C       6      r6    -0.0364
   1456 C          -13.6514     2.3659     5.2332 C       6      r6     0.0084
   1457 C          -13.2862     4.0259     7.1347 C       6      r6    -0.0011
   1458 C          -12.4769     2.8214     4.5257 C       6      r6    -0.0006
   1459 C          -11.7938     3.9361     5.1895 C       6      r6    -0.0001
   1460 C           -9.9561     0.2690     5.3559 C       6      r6     0.0003
   1461 C           -9.8909     1.1889     4.3112 C       6      r6     0.0017
   1462 C           -9.7740     0.6524     7.8254 C       6      r6     0.0012
   1463 C           -9.5146     2.6063     4.4596 C       6      r6     0.0013
   1464 C           -9.4767     4.1172     7.8311 C       5      r5    -0.0016
   1465 C           -9.4286     0.9340     6.4773 C       6      r6    -0.0021
   1466 C           -8.9327     2.9445     5.7113 C       6      r6     0.0003
   1467 C           -8.7177     4.1410     6.5673 C       6      r6    -0.0020
   1468 C           -8.4440     1.8429     6.2998 C       6      r6    -0.0026
   1469 C           -7.4688     1.9600     7.2726 C       6      r6     0.0039
   1470 C           -7.2753     4.2531     6.4196 C       6      r6     0.0014
   1471 C           -7.2002     0.6775     7.9713 C       6      r6    -0.0040
   1472 C           -6.7953     3.2082     7.3508 C       6      r6    -0.0046
   1473 C           -5.8280     3.4244     8.3359 C       7      r7     0.0182
   1474 C           -4.7707     4.2256     8.0572 C       6      r6     0.0014
   1475 C           -4.5004     1.3226     6.0537 C       6      r6    -0.0004
   1476 C           -4.3830     3.9716     6.6661 C       6      r6     0.0004
   1477 C           -4.3840     0.2798     7.1197 C       6      r6     0.0064
   1478 C           -4.4100     0.9923     4.6176 C       7      r7    -0.0009
   1479 C           -3.8935     2.5762     6.6022 C       6      r6     0.0036
   1480 C           -3.1317     0.1337     4.4496 C       7      r7    -0.0055
   1481 C           -2.8976     2.4238     7.6777 C       6      r6     0.0072
   1482 C           -2.1878     1.1288     7.8321 C       6      r6     0.0074
   1483 C           -1.7432     2.3055     4.2618 C       6      r6    -0.0033
   1484 C           -0.9922     0.7332     8.5987 C       7      r7     0.0035
   1485 C           -0.5589     2.5760     5.0301 C       6      r6     0.0003
   1486 C           -0.2696     3.6799     5.8522 C       6      r6     0.0016
   1487 C            0.4284     1.6558     5.4262 C       6      r6    -0.0025
   1488 C            0.3564     0.3056     5.0326 C       6      r6    -0.0013
   1489 C            0.7349     3.4283     6.8043 C       6      r6    -0.0009
   1490 C            0.8750     3.7480     8.2466 C       6      r6    -0.0040
   1491 C            1.2077     2.1367     6.4785 C       6      r6    -0.0031
   1492 C            2.0957     1.2952     7.2075 C       6      r6    -0.0018
   1493 C            2.8298     1.8187     8.2405 C       6      r6    -0.0016
   1494 C            4.0597     2.4478     4.4765 C       0      r0     0.0027
   1495 C            5.2579     2.0115     5.1025 C       7      r7     0.0289
   1496 C            5.9911     4.3020     5.4526 C       6      r6    -0.0107
   1497 C            6.2091     2.9819     5.7666 C       7      r7    -0.0413
   1498 C            7.3810     2.8062     6.4648 C       5      r5     0.2329
   1499 O            7.9265     1.4043     6.5950 O       5      r5    -0.5094
   1500 C            8.1987     3.8131     6.9442 C       6      r6    -0.0501
   1501 C            9.1319     1.7400     7.4434 C       5      r5     0.2270
   1502 C            9.3004     3.1117     7.5051 C       6      r6    -0.0379
   1503 C           10.2390     0.8567     7.7473 C       7      r7    -0.0427
   1504 C           10.4567     0.2417     5.2835 C       5      r5     0.0184
   1505 C           10.4604     3.7910     7.8827 C       6      r6     0.0036
   1506 C           10.7611     1.5689     4.8601 C       6      r6     0.0096
   1507 C           11.8395     3.1338     7.9365 C       6      r6    -0.0032
   1508 C           11.9907     2.1673     5.4064 C       6      r6     0.0021
   1509 C           12.5649     2.6785     6.6088 C       6      r6     0.0158
   1510 C           13.1903     1.8246     4.5625 C       6      r6     0.0118
   1511 C           13.9620     2.9811     6.4935 C       6      r6     0.0086
   1512 H          -13.5576     6.6957     5.5544 H       0      r0     0.0198
   1513 C          -12.5989     7.2246     5.5070 C       5      r5    -0.0174
   1514 C          -12.1255     4.5058     6.4915 C       6      r6     0.0002
   1515 C          -11.7009     6.9177     6.7858 C       6      r6     0.0021
   1516 C          -11.2219     5.6030     6.9816 C       6      r6    -0.0013
   1517 C          -11.1358     8.0959     7.3606 C       6      r6     0.0014
   1518 C          -10.7232     4.5607     4.3944 C       7      r7    -0.0012
   1519 C          -10.2313     5.4199     8.1482 C       6      r6    -0.0014
   1520 C           -9.7617     7.9654     7.9036 C       6      r6     0.0005
   1521 C           -9.2654     6.7257     8.3230 C       6      r6    -0.0011
   1522 C           -6.6572     6.0993     4.4120 C       6      r6    -0.0008
   1523 C           -6.4464     5.0920     5.5089 C       6      r6    -0.0006
   1524 C           -5.8451     7.4464     4.4970 C       6      r6     0.0007
   1525 C           -5.2067     7.6230     5.8023 C       6      r6    -0.0010
   1526 C           -5.0631     5.0287     5.9153 C       6      r6     0.0013
   1527 C           -4.4103     8.7541     6.3299 C       5      r5    -0.0004
   1528 C           -4.5481     6.3869     6.2800 C       6      r6    -0.0010
   1529 C           -3.5230     6.7919     7.1844 C       6      r6     0.0001
   1530 C           -3.3955     8.2176     7.1862 C       6      r6    -0.0010
   1531 C           -2.8533     5.9451     8.3824 C       6      r6    -0.0039
   1532 C           -1.9282     4.6778     4.3499 C       6      r6     0.0005
   1533 C           -1.4787     5.2694     8.3050 C       6      r6     0.0003
   1534 C           -1.0641     4.8238     5.5266 C       6      r6     0.0007
   1535 C           -0.1628     6.7898     6.9191 C       7      r7    -0.0005
   1536 C           -0.2951     5.9566     8.0293 C       6      r6     0.0008
   1537 C           -0.3089     6.0664     5.6585 C       6      r6     0.0001
   1538 C            0.0613     8.2033     7.1640 C       7      r7    -0.0003
   1539 C            0.2406     6.3915     4.3216 C       6      r6     0.0003
   1540 C            0.7829     5.2421     8.3843 C       6      r6    -0.0009
   1541 C            1.0179     8.3949     8.2402 C       7      r7     0.0008
   1542 C            1.9517     5.9503     8.4252 C       6      r6    -0.0010
   1543 C            2.0915     7.3937     8.2729 C       5      r5     0.0017
   1544 C            3.2173     5.3398     8.2693 C       6      r6    -0.0014
   1545 C            3.3632     7.6568     7.5981 C       6      r6     0.0002
   1546 C            3.3776     8.4503     6.3971 C       6      r6    -0.0009
   1547 C            4.0911     7.8875     5.1730 C       6      r6    -0.0002
   1548 C            4.1545     6.3467     7.7344 C       6      r6    -0.0009
   1549 C            4.3974     6.4051     5.2293 C       6      r6    -0.0034
   1550 C            4.7130     5.9033     6.4875 C       6      r6     0.0007
   1551 C            5.5099     8.6488     5.1447 C       6      r6    -0.0015
   1552 C            5.8489     5.1594     6.5347 C       6      r6    -0.0034
   1553 C            6.2144     8.0893     6.0484 C       0      r0    -0.0024
   1554 C            6.8782     7.4239     7.0584 C       7      r7     0.0013
   1555 C            7.0158     5.9226     6.9242 C       7      r7    -0.0056
   1556 C            7.2537     8.4277     8.1205 C       6      r6    -0.0016
   1557 C            8.2064     5.2209     7.0444 C       6      r6     0.0098
   1558 C            8.7060     8.4160     8.1413 C       6      r6     0.0013
   1559 C            9.3722     6.0099     7.5358 C       6      r6    -0.0020
   1560 C            9.5688     7.4685     7.3849 C       6      r6    -0.0016
   1561 C           10.4441     5.1727     8.0263 C       6      r6     0.0000
   1562 C           10.7870     8.2712     7.0485 C       6      r6    -0.0007
   1563 C           12.6405     4.2934     8.4970 C       6      r6    -0.0026
   1564 C          -14.0101    12.8554     6.8050 C       5      r5    -0.0006
   1565 C          -13.3260     9.6135     4.8898 C       6      r6    -0.0014
   1566 C          -12.7616     8.7545     5.9098 C       5      r5     0.0028
   1567 C          -12.5539    13.0044     6.9228 C       0      r0    -0.0009
   1568 C          -11.8585     9.3057     6.8877 C       6      r6     0.0010
   1569 C          -11.4794    11.9932     6.6627 C       0      r0    -0.0004
   1570 C          -11.3814    10.6424     7.2566 C       6      r6     0.0013
   1571 C          -10.2666    10.4766     8.1382 C       6      r6     0.0010
   1572 C          -10.2410    12.4675     5.9601 C       6      r6    -0.0004
   1573 C          -10.1945    12.7299     4.5716 C       6      r6     0.0001
   1574 C           -9.2906     9.3981     8.1448 C       6      r6     0.0010
   1575 C           -8.0295    10.0350     8.5518 C       5      r5     0.0014
   1576 C           -7.9236    12.5944     7.4861 C       0      r0    -0.0004
   1577 C           -5.5203    10.0433     8.2798 C       7      r7     0.0001
   1578 C           -5.0273    10.0247     6.8468 C       0      r0     0.0004
   1579 C           -4.9904    11.0922     5.9803 C       0      r0     0.0019
   1580 C           -4.9393    12.0854     5.1338 C       6      r6     0.0005
   1581 C           -3.2516    12.2075     7.5692 C       5      r5     0.0012
   1582 C           -2.5877     9.1971     8.0321 C       6      r6    -0.0007
   1583 C           -2.2265    11.4792     6.8142 C       7      r7     0.0011
   1584 C           -1.7873    10.1162     7.2181 C       7      r7     0.0009
   1585 C           -1.5847    12.3174     5.7892 C       6      r6    -0.0006
   1586 C           -1.4228    10.3045     4.5109 C       5      r5     0.0007
   1587 C           -1.0358    11.6203     4.7484 C       6      r6     0.0007
   1588 C           -0.6892     9.3460     6.5427 C       7      r7     0.0004
   1589 C           -0.3378     9.5738     5.1531 C       5      r5     0.0009
   1590 C            0.3349    11.6121     4.6718 C       6      r6     0.0005
   1591 C            0.9149    10.3729     5.0419 C       6      r6    -0.0003
   1592 C            0.9974    12.8143     4.5874 C       6      r6     0.0002
   1593 C            1.7463    10.8188     8.4264 C       6      r6     0.0005
   1594 C            2.2729    10.4278     5.3734 C       6      r6    -0.0001
   1595 C            2.4001    12.7799     4.4260 C       6      r6     0.0018
   1596 C            2.8916     9.8412     6.5781 C       0      r0     0.0003
   1597 C            3.0563    11.4293     4.5912 C       6      r6    -0.0014
   1598 C            3.0923    10.6303     7.8109 C       6      r6     0.0011
   1599 C            4.4190    11.2640     4.6930 C       0      r0    -0.0002
   1600 C            5.7255    11.1594     4.7694 C       7      r7    -0.0008
   1601 C            6.3604    12.4635     4.5530 C       7      r7     0.0003
   1602 C            7.7645    12.6455     4.8727 C       6      r6     0.0018
   1603 C            8.5632    10.2472     4.3963 C       6      r6    -0.0014
   1604 C            8.7330    11.6601     4.5148 C       6      r6    -0.0008
   1605 C           10.1199    12.0058     4.4182 C       6      r6     0.0008
   1606 C           10.4888     8.7790     4.3679 C       6      r6    -0.0014
   1607 C           11.2579     8.7824     5.8210 C       5      r5    -0.0018
   1608 C           11.4828     8.9746     8.2360 C       6      r6     0.0017
   1609 C           12.4441     9.5570     6.1760 C       5      r5     0.0012
   1610 C           12.6685     9.6661     7.6901 C       5      r5     0.0017
   1611 C           13.1873    12.6926     5.6165 C       5      r5     0.0004
   1612 C           13.2853    11.5854     4.6501 C       6      r6     0.0014
   1613 C           13.3746    10.2290     5.1558 C       6      r6    -0.0001
   1614 C          -13.0848   -10.7938    11.2488 C       6      r6    -0.0008
   1615 C          -12.8258    -9.1155     9.6716 C       6      r6     0.0061
   1616 C          -12.5653   -11.9464    12.0145 C       7      r7     0.0001
   1617 C          -12.2302   -10.1333    10.3954 C       6      r6    -0.0016
   1618 C          -11.7053   -12.0378     8.9956 C       6      r6    -0.0007
   1619 C          -11.1384   -10.9777     9.8138 C       6      r6    -0.0026
   1620 C           -9.8375   -11.2687    10.4097 C       6      r6    -0.0011
   1621 C           -9.3944    -8.9748    11.5276 C       6      r6    -0.0006
   1622 C           -9.2651   -12.6125    10.2561 C       6      r6     0.0001
   1623 C           -8.8843   -10.2321    10.9502 C       6      r6    -0.0004
   1624 C           -7.8249   -12.8709    10.4616 C       6      r6     0.0009
   1625 C           -7.5424   -10.3833    10.3633 C       6      r6    -0.0002
   1626 C           -6.9629   -11.7114    10.6685 C       6      r6    -0.0001
   1627 C           -7.0219    -9.5035     9.2625 C       7      r7    -0.0032
   1628 C           -5.6111   -11.8497    11.0756 C       6      r6    -0.0001
   1629 C           -5.0168   -12.8421    12.0093 C       6      r6     0.0021
   1630 C           -4.7130   -10.7810    10.6824 C       6      r6    -0.0016
   1631 C           -4.7128   -10.1707     9.3396 C       5      r5    -0.0019
   1632 C           -4.0877   -12.2867   -12.6280 C       6      r6    -0.0022
   1633 C           -3.3555   -10.7547    11.2315 C       6      r6     0.0003
   1634 C           -3.3673    -9.9120     9.0308 C       5      r5    -0.0008
   1635 C           -3.1010   -11.3327    12.5651 C       6      r6    -0.0009
   1636 C           -2.5005   -10.1606    10.2264 C       5      r5    -0.0001
   1637 C           -2.0891   -12.7154     9.0518 C       6      r6     0.0005
   1638 C           -1.0746    -9.8721    10.4578 C       5      r5    -0.0001
   1639 C           -0.6309    -9.3391    11.7438 C       5      r5     0.0029
   1640 C           -0.6192   -12.8593     8.8505 C       6      r6     0.0003
   1641 C           -0.0839    -9.6153     9.4517 C       5      r5     0.0001
   1642 C            0.4109   -11.9291     8.4198 C       6      r6    -0.0008
   1643 C            1.8035   -12.4523     8.6147 C       6      r6     0.0002
   1644 C            2.4275   -11.6872     9.7291 C       0      r0     0.0005
   1645 C            2.9752   -11.0918    10.6415 C       0      r0     0.0025
   1646 C            3.3012    -9.1484    12.2445 C       6      r6    -0.0016
   1647 C            3.6515   -10.4214    11.6077 C       6      r6     0.0006
   1648 C            5.2846   -10.6820    11.5150 C       6      r6     0.0005
   1649 C            5.8231   -11.6927    10.5428 C       6      r6     0.0017
   1650 C            5.8214    -8.9925     9.6562 C       6      r6    -0.0006
   1651 C            6.0427   -11.3245     9.1503 C       6      r6     0.0014
   1652 C            6.1321    -9.9822     8.6239 C       6      r6     0.0006
   1653 C            6.1496    -9.4084    11.0434 C       6      r6    -0.0012
   1654 C            6.7763   -12.7061    10.9133 C       6      r6     0.0007
   1655 C            7.2650    -8.9930    11.7218 C       6      r6    -0.0008
   1656 C            7.7619   -12.3159    11.9641 C       6      r6     0.0011
   1657 C            9.0683   -12.9415    11.7936 C       6      r6     0.0001
   1658 C            9.4659    -9.6090    12.6866 C       7      r7     0.0004
   1659 C            9.5395    -9.7952     8.6636 C       6      r6     0.0016
   1660 C           10.3257   -10.8034    12.5043 C       7      r7    -0.0023
   1661 C           10.3028   -12.2379    12.0829 C       7      r7     0.0000
   1662 C           10.5216   -10.5390     9.3690 C       6      r6    -0.0008
   1663 C           10.7202   -11.9689     9.1351 C       6      r6     0.0025
   1664 C           11.4946   -10.2133    11.9234 C       5      r5     0.0017
   1665 C           11.5572    -9.8417    10.4061 C       6      r6     0.0006
   1666 C           11.4660   -12.9608    11.3652 C       6      r6     0.0010
   1667 C           11.7685   -12.6678    10.0302 C       6      r6     0.0000
   1668 C           12.7516   -10.6688    12.5371 C       5      r5    -0.0032
   1669 C           13.0570    -9.8388    10.2391 C       6      r6     0.0022
   1670 C           13.0111   -13.0080     9.3144 C       6      r6     0.0001
   1671 C           13.6290   -10.4062    11.3857 C       6      r6    -0.0002
   1672 C           13.8463    -9.0526     9.4096 C       6      r6    -0.0060
   1673 C          -12.8846    -4.8573     9.1798 C       0      r0     0.0126
   1674 C          -12.1595    -5.2425    10.1868 C       0      r0     0.0189
   1675 C          -11.9738    -8.2374     9.0215 C       6      r6    -0.0439
   1676 C          -11.3909    -5.6458    11.2256 C       5      r5     0.0011
   1677 C          -10.9089    -4.4327    11.8737 C       5      r5     0.0003
   1678 C          -10.5461    -8.4462     9.2922 C       0      r0     0.0487
   1679 C          -10.2333    -6.7182    11.3813 C       6      r6     0.0105
   1680 C          -10.0898    -8.0747    10.6974 C       6      r6    -0.0029
   1681 C           -9.3950    -4.4697    11.9959 C       5      r5     0.0008
   1682 C           -9.2429    -6.1212    12.2265 C       6      r6    -0.0004
   1683 C           -8.5909    -8.4898   -12.7520 C       6      r6    -0.0000
   1684 C           -8.3085    -6.9370   -12.7051 C       6      r6     0.0006
   1685 C           -8.1787    -4.8931     9.7504 C       7      r7     0.0075
   1686 C           -7.0855    -7.9995     9.0494 C       7      r7    -0.0012
   1687 C           -7.0212    -5.7149    10.2545 C       5      r5     0.0011
   1688 C           -6.3496    -6.9000     9.6697 C       5      r5     0.0020
   1689 C           -5.8947    -4.9725    10.7433 C       5      r5    -0.0040
   1690 C           -4.9009    -6.6471     9.4397 C       5      r5    -0.0012
   1691 C           -4.5490    -5.4928    10.3147 C       5      r5    -0.0022
   1692 C           -3.5755    -4.5040    10.2519 C       0      r0    -0.0069
   1693 C            0.4348    -8.3975    11.4261 C       5      r5    -0.0000
   1694 C            0.6573    -5.1999     9.1790 C       6      r6    -0.0000
   1695 C            0.7344    -8.5169     9.9862 C       5      r5    -0.0012
   1696 C            1.3107    -7.6305    12.3637 C       7      r7    -0.0014
   1697 C            1.3342    -7.4454     9.1614 C       6      r6    -0.0014
   1698 C            1.5679    -6.1471     9.7493 C       6      r6    -0.0004
   1699 C            2.6640    -4.3617    11.1906 C       6      r6     0.0071
   1700 C            2.6543    -5.7419    10.6881 C       6      r6    -0.0039
   1701 C            3.8770    -6.4704    10.9861 C       7      r7     0.0004
   1702 C            4.6614    -6.3795    12.3037 C       7      r7    -0.0010
   1703 C            4.8763    -6.5940     9.8793 C       7      r7    -0.0018
   1704 C            5.2055    -7.7758     9.1167 C       6      r6    -0.0010
   1705 C            5.1172    -5.2827     9.2513 C       6      r6     0.0039
   1706 C            5.2638    -5.0167    12.5344 C       7      r7     0.0011
   1707 C            6.1304    -4.5180    11.4727 C       7      r7     0.0412
   1708 C            7.9345    -6.5710     8.9014 C       6      r6    -0.0019
   1709 C            7.8927    -7.8353    11.0318 C       6      r6    -0.0002
   1710 C            8.2585    -7.8370     9.5955 C       6      r6     0.0002
   1711 C            8.5633    -5.5141     9.6720 C       6      r6    -0.0019
   1712 C            8.4242    -6.7404    11.8015 C       6      r6    -0.0001
   1713 C            8.5830    -5.3549    11.1727 C       6      r6    -0.0022
   1714 C            9.0221    -4.4749     8.8845 C       6      r6    -0.0023
   1715 C            9.4833    -8.3882     9.0740 C       6      r6    -0.0001
   1716 C            9.9703    -4.5500    11.4960 C       6      r6    -0.0025
   1717 C           10.8769    -7.8322     9.1253 C       6      r6    -0.0017
   1718 C           11.0885    -7.8141    11.7832 C       7      r7    -0.0012
   1719 C           11.3118    -8.3432    10.4204 C       6      r6     0.0007
   1720 C           11.2091    -5.3257    11.1993 C       7      r7    -0.0030
   1721 C           11.5905    -6.4236    12.1051 C       7      r7    -0.0016
   1722 C           11.9604    -5.3131    10.0156 C       0      r0     0.0013
   1723 C           12.8667    -5.5165     9.2622 C       0      r0    -0.0036
   1724 C           13.9811    -5.6821     8.5168 C       0      r0     0.0238
   1725 C          -12.7525    -1.0728    11.3269 C       5      r5     0.0028
   1726 C          -11.6010    -1.9661    11.3824 C       7      r7     0.0002
   1727 C          -11.4838    -3.1517    12.3009 C       5      r5    -0.0005
   1728 C          -10.5470    -1.9149    10.3478 C       7      r7    -0.0020
   1729 C          -10.4159    -0.6149     9.5774 C       5      r5     0.0032
   1730 C          -10.0267    -3.2004     9.8127 C       7      r7    -0.0044
   1731 C           -9.1055    -4.0821    10.5255 C       7      r7     0.0033
   1732 C           -7.5472    -0.3651    11.9910 C       6      r6     0.0009
   1733 C           -6.8537    -1.2812    11.0222 C       6      r6     0.0002
   1734 C           -6.4590    -2.5745    11.3465 C       0      r0    -0.0027
   1735 C           -6.4217    -0.6063     9.7745 C       6      r6     0.0079
   1736 C           -6.1497    -3.8037    11.7181 C       0      r0    -0.0022
   1737 C           -5.3115    -1.1361     8.9944 C       6      r6    -0.0002
   1738 C           -4.0092    -1.1460     9.6787 C       6      r6     0.0105
   1739 C           -3.3910    -1.1439    11.0036 C       6      r6     0.0261
   1740 C           -3.4402    -0.0633    12.0684 C       6      r6    -0.0752
   1741 C           -2.6370    -2.3622    11.2851 C       6      r6    -0.0115
   1742 C           -2.6901    -3.4892    10.3040 C       7      r7    -0.0013
   1743 C           -2.3842    -2.6483    12.6661 C       6      r6     0.0018
   1744 C           -1.6433    -3.4102     9.0560 C       6      r6    -0.0026
   1745 C           -0.3096    -2.8617     9.4356 C       6      r6    -0.0011
   1746 C           -0.3380    -4.1557    12.4367 C       7      r7    -0.0038
   1747 C           -0.0217    -1.4268     9.5774 C       6      r6    -0.0011
   1748 C            0.2702    -1.7157    12.0487 C       6      r6     0.0009
   1749 C            0.4359    -3.1280    11.7594 C       7      r7    -0.0013
   1750 C            0.4735    -0.9062    10.8898 C       6      r6     0.0025
   1751 C            0.8148    -3.8020     9.6135 C       6      r6    -0.0029
   1752 C            1.5444    -3.4975    10.8307 C       6      r6     0.0037
   1753 C            3.0334    -4.1057    12.6348 C       7      r7     0.0094
   1754 C            4.1972    -0.1264     9.1424 C       6      r6    -0.0525
   1755 C            4.2988    -2.5078     8.7544 C       6      r6    -0.0553
   1756 C            4.7404    -0.3782    10.4847 C       6      r6     0.2239
   1757 C            5.0450    -2.8413     9.9129 C       6      r6     0.2393
   1758 O            5.1724    -1.8042    11.0162 O       6      r6    -0.4871
   1759 C            5.5503    -4.1478    10.1442 C       6      r6    -0.0444
   1760 C            7.2268    -0.3177     8.9841 C       5      r5     0.0137
   1761 C            7.5168    -4.3850    11.8974 C       5      r5     0.0026
   1762 C            8.3549    -0.9006     9.5220 C       5      r5     0.0143
   1763 C            8.9038    -2.0363     8.8295 C       6      r6     0.0062
   1764 C            8.9031    -0.2217    12.3117 C       7      r7     0.0013
   1765 C            9.1317    -0.0356    10.7137 C       5      r5     0.0017
   1766 C            9.5491    -3.1912     9.5129 C       6      r6     0.0018
   1767 C           10.1339    -3.1868    10.8298 C       6      r6     0.0016
   1768 C           10.5733     0.0733    10.2309 C       7      r7    -0.0021
   1769 C           10.7926    -2.0623    11.5129 C       6      r6    -0.0021
   1770 C           11.4194    -0.8653    10.8409 C       7      r7     0.0066
   1771 C           12.8860    -0.5839    10.8506 C       5      r5     0.0086
   1772 C           13.6465    -2.4712    12.5184 C       0      r0    -0.0002
   1773 C           13.8961    -1.4724    11.5375 C       5      r5     0.0027
   1774 C          -13.8753     4.2375     8.5653 C       6      r6     0.0001
   1775 C          -13.7094     2.8433     9.4397 C       6      r6     0.0043
   1776 C          -13.0066     0.1950    10.5434 C       6      r6     0.0080
   1777 C          -12.4051     2.6062     9.7353 C       6      r6     0.0028
   1778 C          -12.3301     4.0170    12.5389 C       7      r7    -0.0011
   1779 C          -12.1719     1.3849    10.4691 C       6      r6     0.0009
   1780 C          -11.2168     3.6055     9.3847 C       5      r5    -0.0001
   1781 C          -10.8923     1.1807    12.6386 C       6      r6    -0.0041
   1782 C          -10.8670     1.2358    11.1967 C       7      r7    -0.0021
   1783 C          -10.0356     3.0427     8.6598 C       5      r5     0.0008
   1784 C          -10.0131     0.7440    10.0758 C       5      r5    -0.0045
   1785 C           -9.7211     1.6068     8.9612 C       5      r5    -0.0008
   1786 C           -8.0360     3.1196    12.7861 C       6      r6     0.0087
   1787 C           -7.9471     3.7718    11.4822 C       6      r6    -0.0036
   1788 C           -7.6591     1.0252    11.6431 C       6      r6     0.0092
   1789 C           -7.2167     3.0067    10.4333 C       6      r6     0.0191
   1790 C           -7.4673     1.5880    10.3820 C       6      r6     0.0072
   1791 C           -7.0069     0.6691     9.3677 C       6      r6     0.0135
   1792 C           -6.3880     3.7094     9.5608 C       6      r6     0.0265
   1793 O           -4.0991     2.3896    11.0241 O       6      r6    -0.4921
   1794 C           -3.5324     3.7487    11.2994 C       6      r6     0.2432
   1795 C           -3.5697     1.3969    12.0901 C       6      r6     0.2039
   1796 C           -2.6762     3.9828    12.3577 C       6      r6    -0.0638
   1797 C           -2.7133     3.4015     8.7307 C       6      r6     0.0329
   1798 C           -1.4625     3.9360     8.7916 C       6      r6    -0.0082
   1799 C           -0.2740     3.1538     8.8903 C       6      r6     0.0038
   1800 C           -0.1523     1.7384     9.2292 C       6      r6     0.0016
   1801 C            1.0084     0.3943    11.1659 C       6      r6     0.0039
   1802 C            0.9944     4.4336    12.0497 C       5      r5    -0.0004
   1803 C            1.2750     0.9148    12.4771 C       6      r6     0.0005
   1804 C            0.9808     1.5284    10.2055 C       6      r6     0.0001
   1805 C            1.5615     2.3218    12.7163 C       6      r6     0.0018
   1806 C            1.8612     3.2708    11.6701 C       6      r6    -0.0021
   1807 C            1.8263     2.6705    10.3369 C       6      r6    -0.0022
   1808 C            2.2925     3.0763     8.9584 C       6      r6    -0.0031
   1809 C            3.3589     4.0406     8.7622 C       6      r6    -0.0023
   1810 C            4.1375     1.2943     8.7198 C       6      r6     0.0132
   1811 C            4.4319     1.3992    12.3315 C       0      r0     0.0246
   1812 C            4.5590     0.5706    11.3830 C       0      r0    -0.0362
   1813 C            4.7093     3.7093     8.9703 C       6      r6    -0.0004
   1814 C            5.0850     2.3231     9.0129 C       6      r6     0.0006
   1815 C            6.4724     2.2342     9.5775 C       6      r6     0.0061
   1816 C            7.1847     0.9549     9.6650 C       5      r5     0.0149
   1817 C            7.2035     3.2334    10.2119 C       6      r6    -0.0005
   1818 C            8.3854     1.2541    10.4612 C       5      r5    -0.0032
   1819 C            8.4325     2.6498    10.7431 C       5      r5    -0.0019
   1820 C            9.0348     3.2299    11.9778 C       7      r7    -0.0042
   1821 C           10.9745     0.9424     9.1098 C       7      r7     0.0232
   1822 C           11.9902     1.9535     9.0486 C       6      r6     0.0085
   1823 C           13.2460     1.8766     9.7043 C       6      r6     0.0066
   1824 C           13.6213     0.4999    10.2899 C       6      r6     0.0207
   1825 C          -13.4981     5.4947     9.4248 C       6      r6    -0.0021
   1826 C          -13.0481     5.3085    12.1957 C       7      r7     0.0009
   1827 C          -12.1640     6.4893    12.0167 C       5      r5     0.0009
   1828 C          -12.2233     5.9594     9.6549 C       7      r7    -0.0005
   1829 C          -12.0846     7.1330    10.7463 C       5      r5     0.0008
   1830 C          -11.3711     8.3911    10.9326 C       5      r5     0.0009
   1831 C          -11.2049     4.9991     9.3180 C       5      r5    -0.0020
   1832 C          -10.9130     8.4368    12.3428 C       5      r5    -0.0005
   1833 C           -7.9483     6.7335     8.9353 C       7      r7     0.0006
   1834 C           -7.9961     5.1545    11.1844 C       6      r6     0.0020
   1835 C           -7.6165     6.3349    12.1411 C       5      r5     0.0010
   1836 C           -7.6298     5.5276     9.8305 C       6      r6    -0.0020
   1837 C           -6.9649     7.8107     8.6427 C       7      r7    -0.0010
   1838 C           -6.5801     8.2759   -12.7924 C       6      r6    -0.0027
   1839 C           -6.4076     7.1181    12.0146 C       5      r5    -0.0001
   1840 C           -6.2167     5.0483     9.8208 C       6      r6    -0.0055
   1841 C           -5.1945     6.7591    11.2437 C       5      r5    -0.0042
   1842 C           -5.1114     5.5725    10.4384 C       5      r5     0.0177
   1843 C           -3.9254     7.3431    11.5536 C       5      r5    -0.0001
   1844 C           -3.8135     4.9096    10.3771 C       6      r6    -0.0413
   1845 C           -3.5701     4.4685     8.9062 C       6      r6     0.0149
   1846 C           -3.4812     8.5712    11.9698 C       7      r7    -0.0017
   1847 C           -2.9918     6.3600    10.7381 C       6      r6     0.0014
   1848 C           -2.7944     7.0553     9.3970 C       6      r6     0.0007
   1849 C           -2.2213     8.3735     9.2030 C       6      r6    -0.0006
   1850 C           -1.8975     5.1367    12.6715 C       6      r6     0.0165
   1851 C           -1.7758     6.0102    11.5508 C       6      r6    -0.0077
   1852 C           -1.4182     8.8194    10.3947 C       7      r7    -0.0015
   1853 C           -0.4597     6.4918    11.1105 C       5      r5     0.0021
   1854 C           -0.3220     7.8448    10.5945 C       5      r5    -0.0016
   1855 C            0.7915     5.8360    11.5017 C       5      r5    -0.0015
   1856 C            1.0750     8.1225    10.9502 C       6      r6    -0.0013
   1857 C            1.7033     6.9325    11.6348 C       6      r6     0.0005
   1858 C            2.8151     7.0106    12.5649 C       6      r6     0.0010
   1859 C            3.2794     8.8187    10.8621 C       6      r6     0.0009
   1860 C            3.5595     8.2875    12.1807 C       6      r6     0.0012
   1861 C            4.3248     8.3667     9.9375 C       7      r7     0.0015
   1862 C            4.9222     8.6098    12.5114 C       7      r7     0.0000
   1863 C            5.1531     6.2208     9.0546 C       6      r6    -0.0001
   1864 C            5.1603     7.1187    10.1104 C       6      r6     0.0009
   1865 C            5.5691     4.8856     9.3788 C       6      r6    -0.0007
   1866 C            5.8754     7.4605    12.6456 C       7      r7     0.0011
   1867 C            5.8938     6.7334    11.3569 C       6      r6    -0.0004
   1868 C            6.6715     4.6047    10.3025 C       6      r6     0.0001
   1869 C            6.8815     5.6797    11.2608 C       6      r6    -0.0008
   1870 C            7.8825     5.3198    12.3418 C       7      r7     0.0003
   1871 C            9.0131     7.9436    11.0279 C       0      r0     0.0015
   1872 C            9.1829     4.7078    12.0631 C       7      r7    -0.0014
   1873 C           10.0227     6.9667    10.9430 C       7      r7     0.0007
   1874 C           10.2496     5.7558    11.8069 C       7      r7    -0.0019
   1875 C           11.3621     7.4388    10.4289 C       7      r7     0.0005
   1876 C           11.3372     6.0793    12.6818 C       7      r7     0.0019
   1877 C           11.6135     8.7077    11.1254 C       7      r7     0.0014
   1878 C           11.7787     5.3984     8.7236 C       6      r6    -0.0037
   1879 C           12.1546     8.4684    12.4811 C       5      r5     0.0007
   1880 C           12.1943     6.4135     9.7794 C       6      r6    -0.0021
   1881 C           12.6168     5.1892    12.6445 C       7      r7    -0.0017
   1882 C           13.4917     6.0373    10.3132 C       6      r6    -0.0005
   1883 C           13.6421     5.4051    11.6311 C       7      r7    -0.0013
   1884 C          -13.8694    10.4067    11.2516 C       5      r5     0.0000
   1885 C          -13.7065     9.9390    12.6659 C       7      r7    -0.0006
   1886 C          -12.8073    10.4704    10.1751 C       5      r5     0.0011
   1887 C          -12.7689    11.7642     9.5554 C       5      r5    -0.0001
   1888 C          -11.8515   -13.0488    11.4058 C       7      r7    -0.0003
   1889 C          -11.6667    12.8258     9.8162 C       6      r6    -0.0011
   1890 C          -11.4720    11.9786    12.1391 C       7      r7     0.0019
   1891 C          -11.5674     9.8007    10.6179 C       5      r5     0.0004
   1892 C          -11.0195    10.5987    11.6731 C       5      r5     0.0010
   1893 C          -10.1441    12.5260     9.6692 C       6      r6    -0.0006
   1894 C           -9.6060    11.5393     8.8977 C       6      r6    -0.0002
   1895 C           -8.0703    11.5429     8.7834 C       6      r6     0.0006
   1896 C           -7.2064    12.0438     9.9923 C       6      r6     0.0010
   1897 C           -6.7639     9.2634     8.6373 C       7      r7    -0.0007
   1898 C           -5.8850    11.5721    10.3209 C       7      r7     0.0009
   1899 C           -5.1040    11.9495    11.5527 C       7      r7     0.0001
   1900 C           -5.0131    10.9958     9.2045 C       7      r7     0.0005
   1901 C           -4.3571     9.6589    12.5297 C       7      r7    -0.0005
   1902 C           -4.0638    11.0352    12.1137 C       0      r0    -0.0012
   1903 C           -3.7261    11.6837     8.8526 C       5      r5     0.0016
   1904 C           -2.7985    12.3927     9.7650 C       6      r6     0.0010
   1905 C           -2.6387    11.4790    12.1682 C       6      r6    -0.0013
   1906 C           -2.0426     8.9544    11.7202 C       7      r7     0.0036
   1907 C           -2.0567    11.8349    10.9068 C       6      r6     0.0002
   1908 C           -0.5712    11.8932    10.8071 C       6      r6     0.0001
   1909 C            0.0494    12.2281     9.5475 C       6      r6     0.0008
   1910 C            0.2521    12.0113    11.9827 C       6      r6    -0.0007
   1911 C            1.4068     9.5714     9.0568 C       0      r0     0.0007
   1912 C            1.5098    12.0739     9.1883 C       6      r6    -0.0002
   1913 C            1.7019    11.8379    11.7559 C       6      r6    -0.0010
   1914 C            1.9008     9.1143    10.4085 C       6      r6    -0.0000
   1915 C            2.3666    11.7095    10.4438 C       6      r6    -0.0004
   1916 C            3.6225    11.0994    10.2673 C       6      r6    -0.0006
   1917 C            4.0038    10.5070     8.9645 C       6      r6     0.0010
   1918 C            4.3401    10.9193    11.5775 C       6      r6    -0.0007
   1919 C            4.8896     9.3287     8.9963 C       0      r0     0.0001
   1920 C            5.3494     9.8887    11.9720 C       6      r6    -0.0002
   1921 C            6.6168    10.3315    12.5866 C       6      r6    -0.0005
   1922 C            6.3709     9.2642     8.9407 C       6      r6     0.0015
   1923 C            7.2590    12.8036     9.6786 C       6      r6    -0.0006
   1924 C            7.3630     9.7174     9.9527 C       6      r6     0.0008
   1925 C            7.8504     9.6052    12.4209 C       0      r0     0.0002
   1926 C            8.0609     8.8885    11.0869 C       0      r0     0.0005
   1927 C            8.3228    10.5971     9.1966 C       6      r6     0.0008
   1928 C            8.5097    11.9816     9.7061 C       6      r6    -0.0020
   1929 C            9.2465    11.9850    10.9446 C       6      r6    -0.0001
   1930 C            9.2894     9.6946     8.6111 C       6      r6     0.0014
   1931 C           10.0900    10.5810   -12.7732 C       6      r6     0.0001
   1932 C           10.0891    10.8564    11.3703 C       7      r7    -0.0006
   1933 C           10.6554     9.7588     9.1563 C       6      r6     0.0010
   1934 C           10.9422     9.9823    10.5599 C       7      r7     0.0001
   1935 C           12.4779    12.2965    12.0372 C       6      r6     0.0005
   1936 C           13.3468    11.5457    11.1097 C       6      r6     0.0007
   1937 C           13.9279    12.1869     9.8795 C       6      r6     0.0001
   1938 B           14.0188   -13.0774    12.8191 B       8     BOX     0.0000
   1939 B          -14.0188   -13.0774    12.8191 B       8     BOX     0.0000
   1940 B          -14.0188    13.0774    12.8191 B       8     BOX     0.0000
   1941 B           14.0188    13.0774    12.8191 B       8     BOX     0.0000
   1942 B           14.0188   -13.0774   -12.8191 B       8     BOX     0.0000
   1943 B          -14.0188   -13.0774   -12.8191 B       8     BOX     0.0000
   1944 B          -14.0188    13.0774   -12.8191 B       8     BOX     0.0000
   1945 B           14.0188    13.0774   -12.8191 B       8     BOX     0.0000
@<TRIPOS>BOND
     1      1      2      1
     2      1      3      1
     3      2      5      1
     4      2     59      1
     5      3      4      1
     6      4      6      1
     7      5      6      1
     8      5     64      1
     9      6      8      1
    10      7      8      1
    11      7    338      1
    12      8     10      1
    13      9     11      1
    14      9     64      1
    15      9   1683      1
    16     10     11      1
    17     10     12      1
    18     11     14      1
    19     12     15      1
    20     13     14      1
    21     13     71      1
    22     13   1683      1
    23     14     16      1
    24     15     17      1
    25     16     17      1
    26     16     18      1
    27     17     19      1
    28     18     20      1
    29     18     76      1
    30     19   1632      1
    31     20     21      1
    32     20    354      1
    33     21     22      1
    34     21     24      1
    35     22     23      1
    36     23     87      1
    37     24     25      1
    38     24     26      1
    39     25     28      1
    40     25    359      1
    41     25    361      1
    42     26     29      1
    43     26     87      1
    44     27     28      1
    45     27    360      1
    46     28     30      1
    47     28    363      1
    48     29     30      1
    49     29     93      1
    50     30     31      1
    51     31     32      1
    52     31     34      1
    53     33     36      1
    54     33     95      1
    55     33    419      1
    56     34     36      1
    57     34     37      1
    58     35     38      1
    59     35     97      1
    60     36    372      1
    61     37     41      1
    62     38     39      1
    63     38     40      1
    64     39     42      1
    65     40     44      1
    66     40    100      1
    67     41     45      1
    68     41    376      1
    69     42     43      1
    70     42     46      1
    71     43     45      1
    72     44     46      1
    73     44     47      1
    74     45     48      1
    75     47     48      1
    76     47    106      1
    77     48     49      1
    78     49     51      1
    79     49    377      1
    80     50     51      1
    81     50    106      1
    82     50    114      1
    83     51     53      1
    84     52     54      1
    85     53     54      1
    86     53    116      1
    87     54     55      1
    88     54     56      1
    89     57     60      1
    90     57    121      1
    91     58     59      1
    92     58     60      1
    93     60     61      1
    94     61     62      1
    95     61     63      1
    96     61    387      1
    97     63     66      1
    98     63    125      1
    99     64     65      1
   100     65     67      1
   101     65    340      1
   102     66     68      1
   103     67     69      1
   104     67    397      1
   105     68     69      1
   106     68    135      1
   107     69     72      1
   108     70     71      1
   109     70     73      1
   110     70   1684      1
   111     71     76      1
   112     72     74      1
   113     72     75      1
   114     73     77      1
   115     73    136      1
   116     74     77      1
   117     74     78      1
   118     74    135      1
   119     75     80      1
   120     75    349      1
   121     76     79      1
   122     77     81      1
   123     78     82      1
   124     78    137      1
   125     78    401      1
   126     79     83      1
   127     80     82      1
   128     80    403      1
   129     81     84      1
   130     81    138      1
   131     82     86      1
   132     83     85      1
   133     84     85      1
   134     84    143      1
   135     85     88      1
   136     86    407      1
   137     86    410      1
   138     87     88      1
   139     88     89      1
   140     90   1746      1
   141     91    149      1
   142     92     93      1
   143     93     95      1
   144     94     96      1
   145     94    149      1
   146     94    416      1
   147     95     98      1
   148     96     99      1
   149     96    153      1
   150     97     98      1
   151     98     99      1
   152     98    100      1
   153     99    101      1
   154    100    103      1
   155    101    102      1
   156    101    103      1
   157    102    105      1
   158    103    104      1
   159    104    106      1
   160    104    429      1
   161    105    429      1
   162    105    484      1
   163    107    108      1
   164    108    109      1
   165    108    112      1
   166    109    160      1
   167    109    163      1
   168    110   1658      1
   169    110   1718      1
   170    111    113      1
   171    111    114      1
   172    111    429      1
   173    112    113      1
   174    112    115      1
   175    113    164      1
   176    114    116      1
   177    115    118      1
   178    116    117      1
   179    118    119      1
   180    119    172      1
   181    120    122      1
   182    121    123      1
   183    121    441      1
   184    122    123      1
   185    122    124      1
   186    123    125      1
   187    124    174      1
   188    124    177      1
   189    125    126      1
   190    126    127      1
   191    127    128      1
   192    128    129      1
   193    128    134      1
   194    129    130      1
   195    129    132      1
   196    130    182      1
   197    131    132      1
   198    131    183      1
   199    131    514      1
   200    132    133      1
   201    133    135      1
   202    133    450      1
   203    134    135      1
   204    134    136      1
   205    137    138      1
   206    137    457      1
   207    138    141      1
   208    139    140      1
   209    139    188      1
   210    140    141      1
   211    141    142      1
   212    142    144      1
   213    142    460      1
   214    144    145      1
   215    144    146      1
   216    145    197      1
   217    145    527      1
   218    146    147      1
   219    146    148      1
   220    147    196      1
   221    148    149      1
   222    148    150      1
   223    150    151      1
   224    150    471      1
   225    151    154      1
   226    151    201      1
   227    152    153      1
   228    153    154      1
   229    154    156      1
   230    155    156      1
   231    155    205      1
   232    155    208      1
   233    156    157      1
   234    157    158      1
   235    157    159      1
   236    158    160      1
   237    158    162      1
   238    159    161      1
   239    159    483      1
   240    161    208      1
   241    161    213      1
   242    163    165      1
   243    163    166      1
   244    164    165      1
   245    164    492      1
   246    165    167      1
   247    166    168      1
   248    167    168      1
   249    167    170      1
   250    168    169      1
   251    169    216      1
   252    169    222      1
   253    170    171      1
   254    170    494      1
   255    171    498      1
   256    173    175      1
   257    174    175      1
   258    176    234      1
   259    177    178      1
   260    177    179      1
   261    178    182      1
   262    179    183      1
   263    179    508      1
   264    180    181      1
   265    180    234      1
   266    181    184      1
   267    181    236      1
   268    182    183      1
   269    183    184      1
   270    184    512      1
   271    185   1786      1
   272    185   1788      1
   273    186    190      1
   274    186    244      1
   275    186    519      1
   276    187    188      1
   277    187    189      1
   278    189    191      1
   279    190    192      1
   280    190    522      1
   281    191    192      1
   282    191    244      1
   283    191    248      1
   284    192    193      1
   285    193    195      1
   286    193    197      1
   287    194    195      1
   288    194    248      1
   289    196    197      1
   290    197    198      1
   291    198    200      1
   292    198    201      1
   293    199    200      1
   294    199    254      1
   295    199    530      1
   296    200    202      1
   297    201    205      1
   298    202    203      1
   299    202    206      1
   300    204    205      1
   301    204    530      1
   302    204    534      1
   303    206    207      1
   304    206    261      1
   305    207    209      1
   306    207    266      1
   307    208    210      1
   308    209    210      1
   309    209    212      1
   310    210    211      1
   311    211    215      1
   312    211    540      1
   313    212    214      1
   314    213    215      1
   315    213    486      1
   316    214    216      1
   317    215    217      1
   318    216    218      1
   319    217    219      1
   320    217    544      1
   321    218    219      1
   322    218    221      1
   323    219    220      1
   324    220    224      1
   325    220    271      1
   326    221    222      1
   327    221    223      1
   328    222    225      1
   329    223    272      1
   330    224    546      1
   331    226    227      1
   332    226    228      1
   333    227    229      1
   334    228    230      1
   335    228    501      1
   336    229    231      1
   337    229    232      1
   338    230    232      1
   339    230    552      1
   340    231    235      1
   341    232    233      1
   342    233    235      1
   343    233    236      1
   344    234    235      1
   345    235    237      1
   346    236    555      1
   347    237    238      1
   348    238    284      1
   349    238   1838      1
   350    239    242      1
   351    239    291      1
   352    239    566      1
   353    240    241      1
   354    240    517      1
   355    240    566      1
   356    240    571      1
   357    241    243      1
   358    241    244      1
   359    242    243      1
   360    242    245      1
   361    242    295      1
   362    243    246      1
   363    245    573      1
   364    245    632      1
   365    246    247      1
   366    246    249      1
   367    247    250      1
   368    248    249      1
   369    249    251      1
   370    250    252      1
   371    250    306      1
   372    251    252      1
   373    251    253      1
   374    252    255      1
   375    253    254      1
   376    253    257      1
   377    254    581      1
   378    255    258      1
   379    255    308      1
   380    256    257      1
   381    257    259      1
   382    258    260      1
   383    258    316      1
   384    259    260      1
   385    259    261      1
   386    260    587      1
   387    261    264      1
   388    262    263      1
   389    262    316      1
   390    262    319      1
   391    263    265      1
   392    264    265      1
   393    264    590      1
   394    265    266      1
   395    267    269      1
   396    268    269      1
   397    268    270      1
   398    268    271      1
   399    269    273      1
   400    270    605      1
   401    271    272      1
   402    273    330      1
   403    274    609      1
   404    275    276      1
   405    276    277      1
   406    277    278      1
   407    278    280      1
   408    278    281      1
   409    279   1832      1
   410    279   1892      1
   411    280    617      1
   412    281    282      1
   413    281    283      1
   414    282    284      1
   415    283    285      1
   416    283    620      1
   417    284    286      1
   418    285    286      1
   419    285    287      1
   420    286    288      1
   421    287    289      1
   422    287    624      1
   423    288    290      1
   424    288    292      1
   425    289    293      1
   426    290   1838      1
   427    291    292      1
   428    291    624      1
   429    292    293      1
   430    292    295      1
   431    293    294      1
   432    294    296      1
   433    295    297      1
   434    296    297      1
   435    296    298      1
   436    297    299      1
   437    298    302      1
   438    299    303      1
   439    299    632      1
   440    300    301      1
   441    300   1906      1
   442    302    305      1
   443    303    304      1
   444    303    306      1
   445    304    305      1
   446    305    307      1
   447    306    308      1
   448    307    309      1
   449    308    310      1
   450    310    311      1
   451    310    314      1
   452    311    313      1
   453    311    642      1
   454    312   1918      1
   455    313    315      1
   456    314    315      1
   457    314    316      1
   458    315    317      1
   459    317    318      1
   460    319    320      1
   461    319    321      1
   462    320    323      1
   463    320    591      1
   464    321    322      1
   465    321    324      1
   466    322   1931      1
   467    323    324      1
   468    323    653      1
   469    324    325      1
   470    325    326      1
   471    325    327      1
   472    326    328      1
   473    326   1931      1
   474    327    329      1
   475    327    654      1
   476    328    331      1
   477    329    331      1
   478    332    335      1
   479    333    334      1
   480    333    336      1
   481    334    385      1
   482    334    388      1
   483    335    336      1
   484    335    337      1
   485    336    338      1
   486    337    339      1
   487    337    662      1
   488    338    341      1
   489    339    341      1
   490    339    669      1
   491    340    342      1
   492    340    388      1
   493    341    342      1
   494    341    343      1
   495    342    346      1
   496    343    344      1
   497    343    347      1
   498    344    345      1
   499    345    671      1
   500    346    347      1
   501    346    397      1
   502    347    350      1
   503    348    351      1
   504    348    670      1
   505    348    673      1
   506    349    352      1
   507    349    397      1
   508    350    352      1
   509    350    353      1
   510    351    402      1
   511    352    354      1
   512    353    355      1
   513    354    356      1
   514    354    403      1
   515    355    356      1
   516    356    358      1
   517    356    359      1
   518    357    358      1
   519    357    678      1
   520    358    404      1
   521    359    360      1
   522    361    407      1
   523    361    411      1
   524    362    363      1
   525    362    364      1
   526    362    411      1
   527    363    365      1
   528    364    368      1
   529    364    413      1
   530    365    367      1
   531    366    367      1
   532    367    369      1
   533    368    369      1
   534    368    740      1
   535    369    370      1
   536    370    373      1
   537    370    696      1
   538    371    372      1
   539    371    419      1
   540    371    425      1
   541    372    374      1
   542    373    374      1
   543    373    375      1
   544    374    376      1
   545    378    379      1
   546    378    381      1
   547    378    652      1
   548    379    380      1
   549    380    382      1
   550    380    433      1
   551    381    383      1
   552    382    384      1
   553    382    437      1
   554    383    384      1
   555    385    386      1
   556    386    387      1
   557    387    389      1
   558    388    390      1
   559    389    391      1
   560    389    445      1
   561    390    391      1
   562    390    392      1
   563    391    393      1
   564    392    395      1
   565    392    669      1
   566    393    394      1
   567    393    396      1
   568    394    446      1
   569    394    449      1
   570    395    396      1
   571    395    670      1
   572    396    399      1
   573    398    399      1
   574    398    449      1
   575    398    724      1
   576    399    400      1
   577    400    401      1
   578    401    456      1
   579    402    404      1
   580    402    730      1
   581    403    407      1
   582    404    406      1
   583    405    408      1
   584    405    461      1
   585    405    731      1
   586    406    407      1
   587    406    408      1
   588    408    409      1
   589    409    410      1
   590    409    462      1
   591    411    412      1
   592    412    413      1
   593    412    414      1
   594    413    737      1
   595    414    415      1
   596    414    417      1
   597    415    473      1
   598    415    738      1
   599    416    417      1
   600    416    469      1
   601    417    418      1
   602    418    419      1
   603    418    420      1
   604    420    421      1
   605    420    422      1
   606    421    424      1
   607    421    477      1
   608    422    423      1
   609    422    425      1
   610    423    745      1
   611    423    746      1
   612    424    481      1
   613    424    746      1
   614    425    426      1
   615    426    427      1
   616    426    428      1
   617    427    430      1
   618    427    702      1
   619    428    429      1
   620    428    431      1
   621    430    431      1
   622    430    752      1
   623    431    432      1
   624    432    434      1
   625    432    488      1
   626    433    435      1
   627    434    436      1
   628    434    495      1
   629    435    436      1
   630    435    437      1
   631    436    438      1
   632    439    441      1
   633    440    442      1
   634    440    500      1
   635    441    443      1
   636    442    443      1
   637    442    444      1
   638    443    445      1
   639    444    507      1
   640    444    508      1
   641    445    446      1
   642    446    447      1
   643    447    448      1
   644    447    450      1
   645    448    451      1
   646    448    766      1
   647    449    766      1
   648    450    452      1
   649    451    453      1
   650    451    515      1
   651    452    453      1
   652    452    514      1
   653    453    455      1
   654    454    455      1
   655    454    456      1
   656    454    776      1
   657    455    458      1
   658    456    457      1
   659    457    460      1
   660    458    459      1
   661    458    521      1
   662    459    464      1
   663    459    778      1
   664    460    463      1
   665    461    462      1
   666    461    780      1
   667    462    463      1
   668    463    466      1
   669    464    465      1
   670    464    783      1
   671    465    467      1
   672    465    525      1
   673    466    467      1
   674    466    468      1
   675    467    470      1
   676    467    527      1
   677    468    469      1
   678    468    471      1
   679    469    474      1
   680    470    472      1
   681    470    475      1
   682    471    475      1
   683    472    476      1
   684    472    786      1
   685    473    474      1
   686    473    791      1
   687    474    477      1
   688    475    478      1
   689    476    794      1
   690    477    479      1
   691    478    479      1
   692    478    534      1
   693    479    480      1
   694    480    481      1
   695    480    482      1
   696    481    799      1
   697    482    537      1
   698    482    797      1
   699    483    484      1
   700    483    485      1
   701    484    488      1
   702    485    486      1
   703    485    487      1
   704    486    491      1
   705    487    488      1
   706    487    489      1
   707    488    492      1
   708    489    490      1
   709    489    493      1
   710    490    491      1
   711    490    862      1
   712    491    542      1
   713    492    494      1
   714    493    495      1
   715    493    806      1
   716    494    496      1
   717    495    497      1
   718    496    497      1
   719    496    498      1
   720    499    547      1
   721    499    814      1
   722    500    502      1
   723    501    503      1
   724    502    503      1
   725    502    504      1
   726    503    505      1
   727    504    507      1
   728    504    816      1
   729    505    506      1
   730    505    551      1
   731    506    554      1
   732    506    814      1
   733    507    509      1
   734    508    510      1
   735    509    510      1
   736    509    511      1
   737    510    512      1
   738    510    514      1
   739    511    515      1
   740    511    824      1
   741    512    513      1
   742    513    516      1
   743    513    558      1
   744    515    767      1
   745    516    517      1
   746    516    563      1
   747    517    519      1
   748    518    519      1
   749    518    520      1
   750    520    521      1
   751    520    522      1
   752    521    525      1
   753    522    526      1
   754    523    524      1
   755    523    574      1
   756    524    525      1
   757    524    841      1
   758    525    526      1
   759    526    527      1
   760    528    529      1
   761    528    531      1
   762    528    844      1
   763    529    532      1
   764    529    581      1
   765    530    532      1
   766    531    533      1
   767    531    850      1
   768    532    533      1
   769    533    535      1
   770    534    536      1
   771    535    538      1
   772    535    539      1
   773    536    537      1
   774    536    539      1
   775    538    853      1
   776    538    908      1
   777    539    540      1
   778    540    592      1
   779    541    542      1
   780    541    543      1
   781    541    864      1
   782    542    544      1
   783    543    545      1
   784    543    600      1
   785    544    546      1
   786    545    868      1
   787    547    549      1
   788    548    549      1
   789    548    550      1
   790    549    551      1
   791    550    610      1
   792    550    611      1
   793    551    552      1
   794    552    553      1
   795    552    555      1
   796    553    556      1
   797    553    616      1
   798    554    557      1
   799    554    879      1
   800    555    558      1
   801    556    559      1
   802    556    621      1
   803    557    558      1
   804    557    559      1
   805    557    561      1
   806    559    560      1
   807    560    880      1
   808    561    563      1
   809    561    882      1
   810    562    564      1
   811    562    622      1
   812    562    625      1
   813    563    567      1
   814    564    566      1
   815    564    567      1
   816    565    568      1
   817    565    625      1
   818    565    886      1
   819    567    568      1
   820    567    569      1
   821    568    570      1
   822    569    571      1
   823    569    572      1
   824    570    572      1
   825    570    891      1
   826    571    573      1
   827    572    574      1
   828    573    575      1
   829    574    576      1
   830    575    577      1
   831    575    578      1
   832    576    578      1
   833    576    893      1
   834    577    632      1
   835    577    636      1
   836    578    579      1
   837    579    580      1
   838    579    582      1
   839    580    636      1
   840    580    639      1
   841    581    582      1
   842    582    583      1
   843    583    584      1
   844    583    585      1
   845    584    586      1
   846    584    899      1
   847    585    587      1
   848    585    588      1
   849    586    588      1
   850    586    905      1
   851    587    589      1
   852    588    645      1
   853    589    590      1
   854    589    591      1
   855    590    592      1
   856    591    595      1
   857    592    596      1
   858    593    594      1
   859    593    598      1
   860    593    908      1
   861    594    597      1
   862    594    907      1
   863    595    597      1
   864    595    650      1
   865    596    598      1
   866    597    599      1
   867    598    600      1
   868    599    601      1
   869    599    602      1
   870    600    601      1
   871    601    606      1
   872    602    603      1
   873    602    604      1
   874    603    605      1
   875    603    655      1
   876    604    607      1
   877    604    965      1
   878    606    607      1
   879    608    920      1
   880    609    611      1
   881    609    614      1
   882    610    612      1
   883    610    613      1
   884    611    616      1
   885    612    871      1
   886    612    923      1
   887    613    614      1
   888    613    615      1
   889    614    617      1
   890    615    618      1
   891    615    923      1
   892    616    620      1
   893    617    619      1
   894    618    619      1
   895    618    928      1
   896    620    621      1
   897    621    622      1
   898    622    624      1
   899    623    625      1
   900    623    627      1
   901    623    931      1
   902    626    628      1
   903    627    628      1
   904    627    936      1
   905    628    629      1
   906    629    630      1
   907    629    939      1
   908    630    631      1
   909    631    633      1
   910    633    634      1
   911    633    635      1
   912    634    943      1
   913    634    948      1
   914    635    637      1
   915    635    638      1
   916    636    638      1
   917    638    640      1
   918    639    641      1
   919    639    900      1
   920    640    641      1
   921    640    642      1
   922    641    643      1
   923    642    644      1
   924    643    644      1
   925    643    645      1
   926    644    646      1
   927    645    647      1
   928    647    648      1
   929    647    907      1
   930    648    649      1
   931    648    957      1
   932    649    650      1
   933    649    651      1
   934    650    653      1
   935    653    655      1
   936    654    656      1
   937    655    656      1
   938    656    657      1
   939    657    658      1
   940    658    967      1
   941    659    660      1
   942    660    663      1
   943    660    665      1
   944    661    663      1
   945    661    666      1
   946    661    969      1
   947    661    975      1
   948    662    664      1
   949    663    664      1
   950    665    668      1
   951    665    669      1
   952    666    977      1
   953    667    925      1
   954    668    714      1
   955    668    718      1
   956    670    721      1
   957    671    672      1
   958    671    673      1
   959    672    674      1
   960    673    675      1
   961    674    675      1
   962    675    676      1
   963    676    677      1
   964    676    678      1
   965    677    679      1
   966    677    988      1
   967    678    680      1
   968    679    682      1
   969    679    733      1
   970    680    681      1
   971    680    683      1
   972    681    684      1
   973    682    683      1
   974    682    685      1
   975    683    686      1
   976    684    686      1
   977    685    687      1
   978    685   1053      1
   979    686    688      1
   980    687    688      1
   981    687    689      1
   982    688    690      1
   983    689    692      1
   984    689    739      1
   985    690    691      1
   986    690   1001      1
   987    691    692      1
   988    691    693      1
   989    692    694      1
   990    693    697      1
   991    693   1007      1
   992    694    695      1
   993    694    698      1
   994    695    696      1
   995    695    745      1
   996    696    700      1
   997    697    699      1
   998    698   1009      1
   999    698   1067      1
  1000    699    701      1
  1001    700    701      1
  1002    700    702      1
  1003    701    703      1
  1004    702    750      1
  1005    703    704      1
  1006    703    705      1
  1007    704    706      1
  1008    704    750      1
  1009    705    707      1
  1010    706    708      1
  1011    706    753      1
  1012    707    709      1
  1013    707   1015      1
  1014    708    709      1
  1015    708   1018      1
  1016    709    710      1
  1017    710    711      1
  1018    710    713      1
  1019    711    712      1
  1020    714    975      1
  1021    714   1031      1
  1022    715    716      1
  1023    715    761      1
  1024    716    717      1
  1025    716   1031      1
  1026    717    718      1
  1027    717    719      1
  1028    718    720      1
  1029    719    722      1
  1030    719    763      1
  1031    720    721      1
  1032    720    723      1
  1033    721    726      1
  1034    722    724      1
  1035    722    725      1
  1036    723    986      1
  1037    723   1035      1
  1038    724    726      1
  1039    725    727      1
  1040    725   1039      1
  1041    726    728      1
  1042    727    729      1
  1043    727    773      1
  1044    728    729      1
  1045    728    730      1
  1046    729    732      1
  1047    730    731      1
  1048    731    775      1
  1049    732    733      1
  1050    732    734      1
  1051    733   1043      1
  1052    734    735      1
  1053    734   1048      1
  1054    735    736      1
  1055    735    781      1
  1056    736    785      1
  1057    736   1051      1
  1058    737    738      1
  1059    737    740      1
  1060    738    741      1
  1061    739    742      1
  1062    739   1056      1
  1063    740    745      1
  1064    741    743      1
  1065    741    792      1
  1066    742    743      1
  1067    742   1062      1
  1068    743    744      1
  1069    744    793      1
  1070    744   1063      1
  1071    746    747      1
  1072    747    748      1
  1073    747    800      1
  1074    748    749      1
  1075    749    801      1
  1076    749   1069      1
  1077    750    751      1
  1078    751    752      1
  1079    751    753      1
  1080    752    754      1
  1081    753    755      1
  1082    754    756      1
  1083    754    806      1
  1084    755    756      1
  1085    755   1078      1
  1086    756    757      1
  1087    757    810      1
  1088    757   1080      1
  1089    758    759      1
  1090    758    820      1
  1091    758   1142      1
  1092    759    760      1
  1093    759   1091      1
  1094    760    761      1
  1095    760    762      1
  1096    761    763      1
  1097    762    764      1
  1098    762    765      1
  1099    763    765      1
  1100    764    767      1
  1101    764    823      1
  1102    765    766      1
  1103    765    769      1
  1104    767    828      1
  1105    768    769      1
  1106    768    770      1
  1107    768   1096      1
  1108    769    771      1
  1109    770    772      1
  1110    770    829      1
  1111    771    773      1
  1112    771    774      1
  1113    772    774      1
  1114    772    836      1
  1115    773    775      1
  1116    774    777      1
  1117    775    776      1
  1118    776    778      1
  1119    777    779      1
  1120    777   1105      1
  1121    778    780      1
  1122    779    837      1
  1123    779   1108      1
  1124    780    781      1
  1125    781    782      1
  1126    782    783      1
  1127    782    784      1
  1128    783    786      1
  1129    784    785      1
  1130    784    789      1
  1131    785    787      1
  1132    786    789      1
  1133    787    788      1
  1134    787   1116      1
  1135    788    790      1
  1136    788   1114      1
  1137    789    791      1
  1138    790    849      1
  1139    791    792      1
  1140    792    793      1
  1141    793    796      1
  1142    794    797      1
  1143    794    851      1
  1144    795    796      1
  1145    795   1123      1
  1146    796    798      1
  1147    797    798      1
  1148    797    855      1
  1149    798    799      1
  1150    798    802      1
  1151    799    800      1
  1152    800    801      1
  1153    801    803      1
  1154    802    803      1
  1155    802    804      1
  1156    803   1129      1
  1157    804    805      1
  1158    804    857      1
  1159    805    807      1
  1160    805    862      1
  1161    806    808      1
  1162    807    808      1
  1163    807    809      1
  1164    808    810      1
  1165    809    811      1
  1166    809    865      1
  1167    810    812      1
  1168    811    812      1
  1169    811   1083      1
  1170    813    815      1
  1171    814    815      1
  1172    814    816      1
  1173    815    818      1
  1174    815    874      1
  1175    816    817      1
  1176    817    818      1
  1177    817    820      1
  1178    818    819      1
  1179    819    821      1
  1180    819   1140      1
  1181    820    823      1
  1182    821    877      1
  1183    821   1146      1
  1184    822    824      1
  1185    823    824      1
  1186    824    826      1
  1187    825    827      1
  1188    825    877      1
  1189    825    879      1
  1190    826    827      1
  1191    826    828      1
  1192    827    830      1
  1193    828    829      1
  1194    829    832      1
  1195    830    831      1
  1196    830    833      1
  1197    831    834      1
  1198    831    882      1
  1199    832    833      1
  1200    832    836      1
  1201    833    835      1
  1202    835    889      1
  1203    835   1148      1
  1204    836    837      1
  1205    837    839      1
  1206    838    840      1
  1207    838    889      1
  1208    838   1203      1
  1209    839    840      1
  1210    839   1154      1
  1211    840    842      1
  1212    841    842      1
  1213    842    843      1
  1214    843    845      1
  1215    843    846      1
  1216    844    846      1
  1217    845    847      1
  1218    845   1159      1
  1219    846    848      1
  1220    847    848      1
  1221    847    849      1
  1222    848    850      1
  1223    849    851      1
  1224    850    852      1
  1225    850    904      1
  1226    851    852      1
  1227    852    853      1
  1228    853    855      1
  1229    854    856      1
  1230    854   1167      1
  1231    855    857      1
  1232    856    858      1
  1233    856   1173      1
  1234    857    859      1
  1235    858    859      1
  1236    858    860      1
  1237    859    861      1
  1238    860    863      1
  1239    860    909      1
  1240    861    863      1
  1241    861    864      1
  1242    862    864      1
  1243    863    866      1
  1244    865    867      1
  1245    865   1133      1
  1246    866    868      1
  1247    866    914      1
  1248    867   1136      1
  1249    867   1183      1
  1250    869    870      1
  1251    869    918      1
  1252    870    872      1
  1253    871    872      1
  1254    872    875      1
  1255    873    874      1
  1256    874    875      1
  1257    874    877      1
  1258    875    876      1
  1259    876    878      1
  1260    876    924      1
  1261    878    881      1
  1262    878   1194      1
  1263    879    882      1
  1264    880    881      1
  1265    880    929      1
  1266    881    884      1
  1267    883    884      1
  1268    883   1194      1
  1269    883   1196      1
  1270    884    885      1
  1271    885    886      1
  1272    885    887      1
  1273    886    937      1
  1274    887    888      1
  1275    887    890      1
  1276    888    889      1
  1277    888   1198      1
  1278    890    892      1
  1279    890    938      1
  1280    891    893      1
  1281    891    940      1
  1282    892    894      1
  1283    892   1264      1
  1284    893    895      1
  1285    894    896      1
  1286    894   1205      1
  1287    895    897      1
  1288    895    944      1
  1289    896    897      1
  1290    896   1211      1
  1291    897    898      1
  1292    898    899      1
  1293    898    902      1
  1294    899    900      1
  1295    900    950      1
  1296    901    902      1
  1297    901   1211      1
  1298    901   1215      1
  1299    902    903      1
  1300    903    904      1
  1301    904    906      1
  1302    905    906      1
  1303    905    907      1
  1304    906    908      1
  1305    909    911      1
  1306    909   1225      1
  1307    910    912      1
  1308    910    959      1
  1309    910   1229      1
  1310    911    913      1
  1311    911   1229      1
  1312    912    913      1
  1313    912    964      1
  1314    914    915      1
  1315    914   1236      1
  1316    916    918      1
  1317    916    919      1
  1318    917    919      1
  1319    917    920      1
  1320    918    921      1
  1321    919    922      1
  1322    921    922      1
  1323    921    924      1
  1324    922    925      1
  1325    923    926      1
  1326    924    926      1
  1327    925    927      1
  1328    926    927      1
  1329    926    929      1
  1330    927    930      1
  1331    928    930      1
  1332    929    931      1
  1333    930    931      1
  1334    930    932      1
  1335    932    933      1
  1336    933    934      1
  1337    933    935      1
  1338    934   1249      1
  1339    934   1255      1
  1340    935   1257      1
  1341    936    937      1
  1342    936    939      1
  1343    937    940      1
  1344    938   1255      1
  1345    938   1261      1
  1346    939    941      1
  1347    940    942      1
  1348    941    943      1
  1349    942    943      1
  1350    942    944      1
  1351    944    947      1
  1352    945    946      1
  1353    945    948      1
  1354    946    947      1
  1355    946    949      1
  1356    947    950      1
  1357    949    951      1
  1358    949   1270      1
  1359    950    951      1
  1360    951    952      1
  1361    952   1215      1
  1362    952   1274      1
  1363    953    956      1
  1364    954    958      1
  1365    954   1278      1
  1366    955    957      1
  1367    956    959      1
  1368    956   1221      1
  1369    957    958      1
  1370    958    960      1
  1371    959    960      1
  1372    960    961      1
  1373    961    963      1
  1374    961    964      1
  1375    962    963      1
  1376    963    966      1
  1377    964    965      1
  1378    965    967      1
  1379    966    967      1
  1380    966    968      1
  1381    969    970      1
  1382    970    971      1
  1383    970    974      1
  1384    971    972      1
  1385    971    973      1
  1386    972    975      1
  1387    972   1026      1
  1388    973    976      1
  1389    973   1293      1
  1390    974    977      1
  1391    976   1033      1
  1392    978   1302      1
  1393    979    980      1
  1394    979    981      1
  1395    979   1033      1
  1396    980    982      1
  1397    980   1301      1
  1398    981    983      1
  1399    981   1035      1
  1400    982    984      1
  1401    982   1302      1
  1402    983    984      1
  1403    983    986      1
  1404    984    985      1
  1405    985    987      1
  1406    986    988      1
  1407    987    990      1
  1408    988    991      1
  1409    989    992      1
  1410    989   1041      1
  1411    989   1309      1
  1412    990    992      1
  1413    990   1310      1
  1414    991    993      1
  1415    991   1043      1
  1416    992    993      1
  1417    993    994      1
  1418    994    995      1
  1419    994    996      1
  1420    995    997      1
  1421    996   1050      1
  1422    996   1052      1
  1423    998   1000      1
  1424    998   1321      1
  1425    998   1325      1
  1426    999   1001      1
  1427   1000   1003      1
  1428   1001   1004      1
  1429   1002   1006      1
  1430   1002   1060      1
  1431   1002   1325      1
  1432   1003   1005      1
  1433   1003   1329      1
  1434   1004   1005      1
  1435   1004   1007      1
  1436   1005   1006      1
  1437   1006   1008      1
  1438   1007   1009      1
  1439   1007   1010      1
  1440   1008   1011      1
  1441   1008   1384      1
  1442   1009   1012      1
  1443   1010   1013      1
  1444   1011   1012      1
  1445   1011   1072      1
  1446   1012   1014      1
  1447   1013   1014      1
  1448   1013   1015      1
  1449   1014   1016      1
  1450   1016   1017      1
  1451   1016   1338      1
  1452   1017   1018      1
  1453   1017   1019      1
  1454   1018   1077      1
  1455   1019   1020      1
  1456   1019   1021      1
  1457   1020   1022      1
  1458   1021   1023      1
  1459   1021   1346      1
  1460   1024   1027      1
  1461   1025   1026      1
  1462   1026   1028      1
  1463   1027   1028      1
  1464   1027   1029      1
  1465   1027   1030      1
  1466   1028   1031      1
  1467   1029   1088      1
  1468   1029   1090      1
  1469   1030   1032      1
  1470   1030   1352      1
  1471   1032   1033      1
  1472   1032   1355      1
  1473   1034   1036      1
  1474   1034   1038      1
  1475   1034   1097      1
  1476   1035   1037      1
  1477   1036   1037      1
  1478   1036   1040      1
  1479   1037   1039      1
  1480   1038   1039      1
  1481   1038   1099      1
  1482   1040   1363      1
  1483   1041   1042      1
  1484   1041   1363      1
  1485   1042   1044      1
  1486   1043   1044      1
  1487   1044   1046      1
  1488   1045   1047      1
  1489   1045   1427      1
  1490   1046   1047      1
  1491   1046   1048      1
  1492   1047   1049      1
  1493   1048   1051      1
  1494   1049   1111      1
  1495   1049   1112      1
  1496   1050   1053      1
  1497   1050   1054      1
  1498   1051   1112      1
  1499   1052   1055      1
  1500   1052   1318      1
  1501   1053   1056      1
  1502   1054   1055      1
  1503   1054   1057      1
  1504   1055   1377      1
  1505   1056   1057      1
  1506   1057   1059      1
  1507   1058   1061      1
  1508   1058   1117      1
  1509   1058   1376      1
  1510   1059   1061      1
  1511   1059   1062      1
  1512   1060   1064      1
  1513   1060   1377      1
  1514   1061   1065      1
  1515   1061   1119      1
  1516   1062   1063      1
  1517   1063   1121      1
  1518   1064   1065      1
  1519   1064   1384      1
  1520   1065   1066      1
  1521   1066   1070      1
  1522   1066   1444      1
  1523   1067   1068      1
  1524   1068   1069      1
  1525   1068   1072      1
  1526   1069   1071      1
  1527   1070   1071      1
  1528   1070   1073      1
  1529   1071   1127      1
  1530   1072   1074      1
  1531   1073   1074      1
  1532   1073   1387      1
  1533   1073   1390      1
  1534   1074   1075      1
  1535   1075   1076      1
  1536   1075   1077      1
  1537   1076   1079      1
  1538   1076   1390      1
  1539   1077   1078      1
  1540   1078   1080      1
  1541   1079   1081      1
  1542   1079   1395      1
  1543   1080   1082      1
  1544   1083   1136      1
  1545   1084   1088      1
  1546   1085   1086      1
  1547   1085   1087      1
  1548   1086   1089      1
  1549   1088   1089      1
  1550   1089   1091      1
  1551   1089   1092      1
  1552   1090   1092      1
  1553   1090   1406      1
  1554   1091   1093      1
  1555   1092   1095      1
  1556   1093   1094      1
  1557   1093   1142      1
  1558   1094   1095      1
  1559   1094   1143      1
  1560   1095   1408      1
  1561   1097   1098      1
  1562   1097   1415      1
  1563   1098   1099      1
  1564   1098   1100      1
  1565   1099   1101      1
  1566   1100   1102      1
  1567   1100   1419      1
  1568   1101   1102      1
  1569   1101   1103      1
  1570   1102   1104      1
  1571   1103   1105      1
  1572   1104   1106      1
  1573   1104   1423      1
  1574   1105   1107      1
  1575   1106   1107      1
  1576   1106   1110      1
  1577   1107   1108      1
  1578   1108   1156      1
  1579   1109   1110      1
  1580   1109   1153      1
  1581   1109   1488      1
  1582   1110   1113      1
  1583   1111   1427      1
  1584   1111   1432      1
  1585   1112   1116      1
  1586   1113   1115      1
  1587   1113   1432      1
  1588   1114   1115      1
  1589   1114   1156      1
  1590   1115   1116      1
  1591   1117   1118      1
  1592   1117   1432      1
  1593   1118   1119      1
  1594   1118   1120      1
  1595   1119   1121      1
  1596   1120   1124      1
  1597   1120   1440      1
  1598   1121   1123      1
  1599   1122   1123      1
  1600   1122   1124      1
  1601   1122   1164      1
  1602   1124   1170      1
  1603   1125   1126      1
  1604   1125   1170      1
  1605   1125   1175      1
  1606   1126   1128      1
  1607   1126   1446      1
  1608   1127   1128      1
  1609   1127   1129      1
  1610   1128   1130      1
  1611   1129   1130      1
  1612   1130   1131      1
  1613   1131   1133      1
  1614   1131   1178      1
  1615   1132   1134      1
  1616   1132   1178      1
  1617   1132   1504      1
  1618   1134   1135      1
  1619   1137   1138      1
  1620   1137   1139      1
  1621   1138   1140      1
  1622   1139   1141      1
  1623   1139   1458      1
  1624   1140   1141      1
  1625   1140   1142      1
  1626   1141   1143      1
  1627   1141   1144      1
  1628   1143   1461      1
  1629   1144   1145      1
  1630   1144   1146      1
  1631   1145   1463      1
  1632   1145   1518      1
  1633   1146   1193      1
  1634   1147   1148      1
  1635   1147   1193      1
  1636   1148   1149      1
  1637   1149   1151      1
  1638   1149   1199      1
  1639   1150   1151      1
  1640   1150   1478      1
  1641   1151   1152      1
  1642   1152   1483      1
  1643   1152   1532      1
  1644   1153   1480      1
  1645   1153   1483      1
  1646   1154   1155      1
  1647   1154   1157      1
  1648   1155   1203      1
  1649   1155   1207      1
  1650   1156   1157      1
  1651   1157   1159      1
  1652   1158   1160      1
  1653   1158   1207      1
  1654   1158   1209      1
  1655   1159   1161      1
  1656   1160   1161      1
  1657   1160   1162      1
  1658   1161   1163      1
  1659   1162   1494      1
  1660   1163   1165      1
  1661   1163   1166      1
  1662   1164   1165      1
  1663   1165   1167      1
  1664   1166   1168      1
  1665   1167   1168      1
  1666   1168   1173      1
  1667   1169   1170      1
  1668   1169   1172      1
  1669   1169   1495      1
  1670   1171   1172      1
  1671   1171   1220      1
  1672   1171   1226      1
  1673   1172   1174      1
  1674   1173   1225      1
  1675   1174   1175      1
  1676   1174   1176      1
  1677   1175   1178      1
  1678   1176   1177      1
  1679   1176   1179      1
  1680   1177   1226      1
  1681   1177   1232      1
  1682   1178   1179      1
  1683   1179   1181      1
  1684   1179   1506      1
  1685   1180   1181      1
  1686   1180   1182      1
  1687   1180   1232      1
  1688   1181   1184      1
  1689   1182   1183      1
  1690   1182   1236      1
  1691   1184   1510      1
  1692   1185   1186      1
  1693   1185   1187      1
  1694   1185   1513      1
  1695   1186   1188      1
  1696   1186   1242      1
  1697   1187   1190      1
  1698   1187   1518      1
  1699   1188   1189      1
  1700   1188   1190      1
  1701   1189   1191      1
  1702   1189   1244      1
  1703   1190   1192      1
  1704   1191   1194      1
  1705   1191   1247      1
  1706   1192   1193      1
  1707   1192   1195      1
  1708   1195   1522      1
  1709   1196   1198      1
  1710   1196   1254      1
  1711   1197   1200      1
  1712   1197   1253      1
  1713   1197   1524      1
  1714   1198   1199      1
  1715   1199   1201      1
  1716   1200   1201      1
  1717   1200   1263      1
  1718   1201   1202      1
  1719   1202   1206      1
  1720   1202   1532      1
  1721   1203   1205      1
  1722   1204   1206      1
  1723   1204   1263      1
  1724   1204   1266      1
  1725   1205   1208      1
  1726   1206   1539      1
  1727   1207   1208      1
  1728   1208   1210      1
  1729   1209   1212      1
  1730   1209   1539      1
  1731   1210   1211      1
  1732   1210   1212      1
  1733   1212   1213      1
  1734   1213   1214      1
  1735   1213   1269      1
  1736   1214   1216      1
  1737   1214   1273      1
  1738   1214   1547      1
  1739   1215   1218      1
  1740   1216   1217      1
  1741   1216   1219      1
  1742   1217   1220      1
  1743   1217   1549      1
  1744   1218   1219      1
  1745   1218   1221      1
  1746   1219   1222      1
  1747   1220   1496      1
  1748   1221   1224      1
  1749   1222   1223      1
  1750   1222   1224      1
  1751   1223   1227      1
  1752   1223   1228      1
  1753   1224   1229      1
  1754   1226   1228      1
  1755   1227   1230      1
  1756   1227   1280      1
  1757   1228   1231      1
  1758   1230   1231      1
  1759   1230   1606      1
  1760   1231   1233      1
  1761   1232   1233      1
  1762   1233   1234      1
  1763   1234   1235      1
  1764   1234   1237      1
  1765   1235   1286      1
  1766   1235   1290      1
  1767   1236   1237      1
  1768   1237   1238      1
  1769   1238   1290      1
  1770   1239   1240      1
  1771   1240   1241      1
  1772   1240   1243      1
  1773   1241   1242      1
  1774   1241   1565      1
  1775   1242   1244      1
  1776   1243   1573      1
  1777   1244   1245      1
  1778   1245   1246      1
  1779   1245   1247      1
  1780   1246   1248      1
  1781   1247   1249      1
  1782   1248   1250      1
  1783   1249   1251      1
  1784   1250   1251      1
  1785   1251   1252      1
  1786   1252   1253      1
  1787   1252   1256      1
  1788   1253   1254      1
  1789   1254   1255      1
  1790   1256   1259      1
  1791   1256   1580      1
  1792   1257   1258      1
  1793   1258   1260      1
  1794   1259   1260      1
  1795   1259   1262      1
  1796   1260   1261      1
  1797   1261   1264      1
  1798   1262   1263      1
  1799   1262   1586      1
  1800   1264   1265      1
  1801   1265   1266      1
  1802   1265   1268      1
  1803   1266   1269      1
  1804   1267   1268      1
  1805   1268   1270      1
  1806   1269   1271      1
  1807   1270   1272      1
  1808   1271   1272      1
  1809   1271   1273      1
  1810   1272   1274      1
  1811   1273   1275      1
  1812   1274   1276      1
  1813   1275   1276      1
  1814   1275   1277      1
  1815   1276   1279      1
  1816   1277   1280      1
  1817   1277   1551      1
  1818   1277   1600      1
  1819   1278   1279      1
  1820   1279   1281      1
  1821   1280   1603      1
  1822   1281   1282      1
  1823   1282   1284      1
  1824   1282   1285      1
  1825   1283   1285      1
  1826   1283   1603      1
  1827   1283   1606      1
  1828   1284   1288      1
  1829   1285   1287      1
  1830   1285   1605      1
  1831   1286   1287      1
  1832   1286   1606      1
  1833   1287   1289      1
  1834   1288   1289      1
  1835   1289   1291      1
  1836   1290   1291      1
  1837   1292   1293      1
  1838   1292   1348      1
  1839   1293   1295      1
  1840   1294   1295      1
  1841   1294   1618      1
  1842   1295   1296      1
  1843   1296   1297      1
  1844   1296   1299      1
  1845   1297   1356      1
  1846   1297   1678      1
  1847   1298   1572      1
  1848   1298   1576      1
  1849   1299   1300      1
  1850   1299   1301      1
  1851   1300   1302      1
  1852   1301   1357      1
  1853   1303   1306      1
  1854   1304   1305      1
  1855   1304   1627      1
  1856   1304   1631      1
  1857   1305   1306      1
  1858   1305   1307      1
  1859   1306   1308      1
  1860   1307   1309      1
  1861   1307   1362      1
  1862   1308   1310      1
  1863   1309   1310      1
  1864   1311   1313      1
  1865   1311   1637      1
  1866   1312   1313      1
  1867   1312   1314      1
  1868   1312   1634      1
  1869   1313   1315      1
  1870   1314   1316      1
  1871   1314   1370      1
  1872   1315   1316      1
  1873   1315   1317      1
  1874   1316   1318      1
  1875   1317   1320      1
  1876   1318   1321      1
  1877   1319   1322      1
  1878   1319   1641      1
  1879   1319   1642      1
  1880   1320   1321      1
  1881   1322   1323      1
  1882   1322   1375      1
  1883   1323   1324      1
  1884   1323   1326      1
  1885   1324   1327      1
  1886   1324   1643      1
  1887   1325   1326      1
  1888   1326   1379      1
  1889   1327   1328      1
  1890   1328   1329      1
  1891   1328   1331      1
  1892   1330   1331      1
  1893   1330   1651      1
  1894   1331   1333      1
  1895   1332   1334      1
  1896   1332   1385      1
  1897   1332   1652      1
  1898   1333   1334      1
  1899   1333   1335      1
  1900   1334   1336      1
  1901   1335   1337      1
  1902   1336   1340      1
  1903   1336   1659      1
  1904   1337   1338      1
  1905   1337   1341      1
  1906   1338   1342      1
  1907   1339   1343      1
  1908   1340   1342      1
  1909   1340   1392      1
  1910   1341   1345      1
  1911   1342   1346      1
  1912   1343   1344      1
  1913   1343   1663      1
  1914   1344   1345      1
  1915   1344   1347      1
  1916   1346   1396      1
  1917   1347   1670      1
  1918   1348   1350      1
  1919   1349   1351      1
  1920   1350   1352      1
  1921   1351   1353      1
  1922   1351   1675      1
  1923   1352   1354      1
  1924   1353   1354      1
  1925   1354   1355      1
  1926   1355   1357      1
  1927   1356   1357      1
  1928   1356   1359      1
  1929   1358   1360      1
  1930   1358   1412      1
  1931   1358   1685      1
  1932   1359   1360      1
  1933   1359   1686      1
  1934   1360   1361      1
  1935   1361   1364      1
  1936   1361   1365      1
  1937   1362   1363      1
  1938   1362   1364      1
  1939   1364   1366      1
  1940   1365   1367      1
  1941   1365   1417      1
  1942   1366   1368      1
  1943   1366   1690      1
  1944   1367   1369      1
  1945   1367   1424      1
  1946   1368   1369      1
  1947   1368   1370      1
  1948   1369   1371      1
  1949   1370   1372      1
  1950   1371   1373      1
  1951   1371   1744      1
  1952   1372   1373      1
  1953   1372   1374      1
  1954   1373   1694      1
  1955   1374   1375      1
  1956   1374   1697      1
  1957   1375   1379      1
  1958   1376   1377      1
  1959   1376   1378      1
  1960   1377   1379      1
  1961   1378   1380      1
  1962   1378   1437      1
  1963   1379   1381      1
  1964   1380   1381      1
  1965   1380   1382      1
  1966   1381   1383      1
  1967   1382   1439      1
  1968   1382   1705      1
  1969   1383   1385      1
  1970   1383   1704      1
  1971   1384   1387      1
  1972   1385   1386      1
  1973   1386   1387      1
  1974   1386   1388      1
  1975   1388   1389      1
  1976   1388   1708      1
  1977   1389   1445      1
  1978   1389   1714      1
  1979   1390   1391      1
  1980   1391   1393      1
  1981   1391   1448      1
  1982   1392   1394      1
  1983   1392   1396      1
  1984   1393   1395      1
  1985   1393   1453      1
  1986   1394   1397      1
  1987   1394   1717      1
  1988   1395   1398      1
  1989   1397   1672      1
  1990   1399   1401      1
  1991   1400   1402      1
  1992   1401   1404      1
  1993   1402   1403      1
  1994   1402   1405      1
  1995   1403   1407      1
  1996   1403   1673      1
  1997   1404   1409      1
  1998   1404   1410      1
  1999   1405   1406      1
  2000   1405   1411      1
  2001   1406   1408      1
  2002   1407   1411      1
  2003   1407   1730      1
  2004   1408   1409      1
  2005   1409   1460      1
  2006   1410   1462      1
  2007   1410   1729      1
  2008   1411   1412      1
  2009   1412   1413      1
  2010   1413   1414      1
  2011   1413   1415      1
  2012   1414   1416      1
  2013   1415   1417      1
  2014   1416   1418      1
  2015   1416   1471      1
  2016   1417   1419      1
  2017   1418   1477      1
  2018   1418   1737      1
  2019   1419   1420      1
  2020   1420   1423      1
  2021   1420   1424      1
  2022   1421   1422      1
  2023   1421   1477      1
  2024   1421   1482      1
  2025   1422   1425      1
  2026   1422   1738      1
  2027   1423   1480      1
  2028   1424   1425      1
  2029   1424   1426      1
  2030   1425   1428      1
  2031   1425   1744      1
  2032   1426   1427      1
  2033   1426   1430      1
  2034   1428   1429      1
  2035   1428   1430      1
  2036   1429   1484      1
  2037   1429   1747      1
  2038   1430   1431      1
  2039   1431   1432      1
  2040   1431   1433      1
  2041   1431   1435      1
  2042   1433   1434      1
  2043   1433   1488      1
  2044   1434   1436      1
  2045   1434   1492      1
  2046   1435   1436      1
  2047   1435   1437      1
  2048   1436   1438      1
  2049   1437   1439      1
  2050   1438   1754      1
  2051   1438   1755      1
  2052   1439   1441      1
  2053   1439   1755      1
  2054   1440   1441      1
  2055   1441   1442      1
  2056   1442   1444      1
  2057   1442   1445      1
  2058   1443   1760      1
  2059   1444   1446      1
  2060   1445   1447      1
  2061   1446   1448      1
  2062   1447   1449      1
  2063   1447   1763      1
  2064   1448   1449      1
  2065   1449   1451      1
  2066   1450   1451      1
  2067   1450   1503      1
  2068   1450   1504      1
  2069   1451   1452      1
  2070   1452   1453      1
  2071   1452   1454      1
  2072   1453   1455      1
  2073   1456   1458      1
  2074   1457   1514      1
  2075   1457   1774      1
  2076   1458   1459      1
  2077   1459   1514      1
  2078   1459   1518      1
  2079   1460   1461      1
  2080   1460   1465      1
  2081   1461   1463      1
  2082   1462   1465      1
  2083   1462   1785      1
  2084   1463   1466      1
  2085   1464   1467      1
  2086   1464   1519      1
  2087   1464   1783      1
  2088   1465   1468      1
  2089   1466   1467      1
  2090   1466   1468      1
  2091   1467   1470      1
  2092   1468   1469      1
  2093   1469   1471      1
  2094   1469   1472      1
  2095   1470   1472      1
  2096   1470   1523      1
  2097   1471   1791      1
  2098   1472   1473      1
  2099   1473   1474      1
  2100   1473   1792      1
  2101   1474   1476      1
  2102   1474   1845      1
  2103   1475   1477      1
  2104   1475   1478      1
  2105   1475   1479      1
  2106   1476   1479      1
  2107   1476   1526      1
  2108   1478   1480      1
  2109   1479   1481      1
  2110   1481   1482      1
  2111   1481   1797      1
  2112   1482   1484      1
  2113   1483   1485      1
  2114   1484   1800      1
  2115   1485   1486      1
  2116   1485   1487      1
  2117   1486   1489      1
  2118   1486   1534      1
  2119   1487   1488      1
  2120   1487   1491      1
  2121   1489   1490      1
  2122   1489   1491      1
  2123   1490   1540      1
  2124   1490   1799      1
  2125   1490   1808      1
  2126   1491   1492      1
  2127   1492   1493      1
  2128   1493   1808      1
  2129   1493   1810      1
  2130   1494   1495      1
  2131   1495   1497      1
  2132   1496   1497      1
  2133   1496   1552      1
  2134   1497   1498      1
  2135   1498   1499      1
  2136   1498   1500      1
  2137   1499   1501      1
  2138   1500   1502      1
  2139   1500   1557      1
  2140   1501   1502      1
  2141   1501   1503      1
  2142   1502   1505      1
  2143   1503   1821      1
  2144   1504   1506      1
  2145   1505   1507      1
  2146   1505   1561      1
  2147   1506   1508      1
  2148   1507   1509      1
  2149   1507   1563      1
  2150   1507   1822      1
  2151   1508   1509      1
  2152   1508   1510      1
  2153   1509   1511      1
  2154   1512   1513      1
  2155   1513   1515      1
  2156   1513   1566      1
  2157   1514   1516      1
  2158   1515   1516      1
  2159   1515   1517      1
  2160   1516   1519      1
  2161   1517   1520      1
  2162   1517   1568      1
  2163   1519   1521      1
  2164   1519   1831      1
  2165   1520   1521      1
  2166   1520   1574      1
  2167   1521   1833      1
  2168   1522   1523      1
  2169   1522   1524      1
  2170   1523   1526      1
  2171   1524   1525      1
  2172   1525   1527      1
  2173   1525   1528      1
  2174   1526   1528      1
  2175   1527   1530      1
  2176   1527   1578      1
  2177   1528   1529      1
  2178   1529   1530      1
  2179   1529   1531      1
  2180   1530   1582      1
  2181   1531   1533      1
  2182   1531   1845      1
  2183   1531   1848      1
  2184   1532   1534      1
  2185   1533   1536      1
  2186   1533   1798      1
  2187   1534   1537      1
  2188   1535   1536      1
  2189   1535   1537      1
  2190   1535   1538      1
  2191   1536   1540      1
  2192   1537   1539      1
  2193   1538   1541      1
  2194   1538   1588      1
  2195   1540   1542      1
  2196   1541   1543      1
  2197   1541   1911      1
  2198   1542   1543      1
  2199   1542   1544      1
  2200   1543   1545      1
  2201   1544   1548      1
  2202   1544   1809      1
  2203   1545   1546      1
  2204   1545   1548      1
  2205   1546   1547      1
  2206   1546   1596      1
  2207   1547   1549      1
  2208   1547   1551      1
  2209   1548   1550      1
  2210   1548   1863      1
  2211   1549   1550      1
  2212   1550   1552      1
  2213   1551   1553      1
  2214   1552   1555      1
  2215   1553   1554      1
  2216   1554   1555      1
  2217   1554   1556      1
  2218   1555   1557      1
  2219   1556   1558      1
  2220   1556   1922      1
  2221   1557   1559      1
  2222   1558   1560      1
  2223   1558   1930      1
  2224   1559   1560      1
  2225   1559   1561      1
  2226   1560   1562      1
  2227   1561   1878      1
  2228   1562   1607      1
  2229   1562   1608      1
  2230   1563   1878      1
  2231   1564   1567      1
  2232   1565   1566      1
  2233   1566   1568      1
  2234   1567   1569      1
  2235   1568   1570      1
  2236   1569   1570      1
  2237   1569   1572      1
  2238   1570   1571      1
  2239   1571   1574      1
  2240   1571   1894      1
  2241   1572   1573      1
  2242   1574   1575      1
  2243   1575   1895      1
  2244   1575   1897      1
  2245   1576   1895      1
  2246   1577   1578      1
  2247   1577   1897      1
  2248   1577   1900      1
  2249   1578   1579      1
  2250   1579   1580      1
  2251   1581   1583      1
  2252   1581   1903      1
  2253   1582   1584      1
  2254   1582   1849      1
  2255   1583   1584      1
  2256   1583   1585      1
  2257   1584   1588      1
  2258   1585   1587      1
  2259   1586   1587      1
  2260   1586   1589      1
  2261   1587   1590      1
  2262   1588   1589      1
  2263   1589   1591      1
  2264   1590   1591      1
  2265   1590   1592      1
  2266   1591   1594      1
  2267   1592   1595      1
  2268   1593   1598      1
  2269   1593   1911      1
  2270   1593   1912      1
  2271   1594   1596      1
  2272   1594   1597      1
  2273   1595   1597      1
  2274   1596   1598      1
  2275   1597   1599      1
  2276   1598   1917      1
  2277   1599   1600      1
  2278   1600   1601      1
  2279   1601   1602      1
  2280   1602   1604      1
  2281   1603   1604      1
  2282   1604   1605      1
  2283   1606   1607      1
  2284   1607   1609      1
  2285   1608   1610      1
  2286   1608   1933      1
  2287   1609   1610      1
  2288   1609   1613      1
  2289   1611   1612      1
  2290   1612   1613      1
  2291   1614   1616      1
  2292   1614   1617      1
  2293   1615   1617      1
  2294   1615   1675      1
  2295   1616   1888      1
  2296   1617   1619      1
  2297   1618   1619      1
  2298   1619   1620      1
  2299   1620   1622      1
  2300   1620   1623      1
  2301   1621   1623      1
  2302   1621   1680      1
  2303   1622   1624      1
  2304   1623   1625      1
  2305   1624   1626      1
  2306   1625   1626      1
  2307   1625   1627      1
  2308   1626   1628      1
  2309   1627   1686      1
  2310   1628   1629      1
  2311   1628   1630      1
  2312   1630   1631      1
  2313   1630   1633      1
  2314   1631   1634      1
  2315   1633   1635      1
  2316   1633   1636      1
  2317   1634   1636      1
  2318   1636   1638      1
  2319   1637   1640      1
  2320   1638   1639      1
  2321   1638   1641      1
  2322   1639   1693      1
  2323   1640   1642      1
  2324   1641   1695      1
  2325   1642   1643      1
  2326   1643   1644      1
  2327   1644   1645      1
  2328   1645   1647      1
  2329   1646   1647      1
  2330   1647   1648      1
  2331   1648   1649      1
  2332   1648   1653      1
  2333   1649   1651      1
  2334   1649   1654      1
  2335   1650   1652      1
  2336   1650   1653      1
  2337   1650   1704      1
  2338   1651   1652      1
  2339   1653   1655      1
  2340   1654   1656      1
  2341   1655   1709      1
  2342   1656   1657      1
  2343   1657   1661      1
  2344   1658   1660      1
  2345   1659   1662      1
  2346   1659   1715      1
  2347   1660   1661      1
  2348   1660   1664      1
  2349   1661   1666      1
  2350   1662   1663      1
  2351   1662   1665      1
  2352   1663   1667      1
  2353   1664   1665      1
  2354   1664   1668      1
  2355   1665   1669      1
  2356   1665   1719      1
  2357   1666   1667      1
  2358   1667   1670      1
  2359   1668   1671      1
  2360   1669   1671      1
  2361   1669   1672      1
  2362   1673   1674      1
  2363   1674   1676      1
  2364   1675   1678      1
  2365   1676   1677      1
  2366   1676   1679      1
  2367   1677   1681      1
  2368   1677   1727      1
  2369   1678   1680      1
  2370   1679   1680      1
  2371   1679   1682      1
  2372   1681   1682      1
  2373   1681   1731      1
  2374   1683   1684      1
  2375   1685   1687      1
  2376   1685   1731      1
  2377   1686   1688      1
  2378   1687   1688      1
  2379   1687   1689      1
  2380   1688   1690      1
  2381   1689   1691      1
  2382   1689   1736      1
  2383   1690   1691      1
  2384   1691   1692      1
  2385   1692   1742      1
  2386   1693   1695      1
  2387   1693   1696      1
  2388   1694   1698      1
  2389   1694   1751      1
  2390   1695   1697      1
  2391   1697   1698      1
  2392   1698   1700      1
  2393   1699   1700      1
  2394   1699   1752      1
  2395   1699   1753      1
  2396   1700   1701      1
  2397   1701   1702      1
  2398   1701   1703      1
  2399   1702   1706      1
  2400   1703   1704      1
  2401   1703   1705      1
  2402   1705   1759      1
  2403   1706   1707      1
  2404   1707   1759      1
  2405   1707   1761      1
  2406   1708   1710      1
  2407   1708   1711      1
  2408   1709   1710      1
  2409   1709   1712      1
  2410   1710   1715      1
  2411   1711   1713      1
  2412   1711   1714      1
  2413   1712   1713      1
  2414   1713   1716      1
  2415   1713   1761      1
  2416   1714   1766      1
  2417   1715   1717      1
  2418   1716   1720      1
  2419   1716   1767      1
  2420   1717   1719      1
  2421   1718   1719      1
  2422   1718   1721      1
  2423   1720   1721      1
  2424   1720   1722      1
  2425   1722   1723      1
  2426   1723   1724      1
  2427   1725   1726      1
  2428   1725   1776      1
  2429   1726   1727      1
  2430   1726   1728      1
  2431   1728   1729      1
  2432   1728   1730      1
  2433   1729   1784      1
  2434   1730   1731      1
  2435   1732   1733      1
  2436   1732   1788      1
  2437   1733   1734      1
  2438   1733   1735      1
  2439   1734   1736      1
  2440   1735   1737      1
  2441   1735   1791      1
  2442   1737   1738      1
  2443   1738   1739      1
  2444   1739   1740      1
  2445   1739   1741      1
  2446   1740   1795      1
  2447   1741   1742      1
  2448   1741   1743      1
  2449   1742   1744      1
  2450   1744   1745      1
  2451   1745   1747      1
  2452   1745   1751      1
  2453   1746   1749      1
  2454   1747   1750      1
  2455   1748   1749      1
  2456   1748   1750      1
  2457   1749   1752      1
  2458   1750   1801      1
  2459   1751   1752      1
  2460   1754   1756      1
  2461   1754   1810      1
  2462   1755   1757      1
  2463   1756   1758      1
  2464   1756   1812      1
  2465   1757   1758      1
  2466   1757   1759      1
  2467   1760   1762      1
  2468   1760   1816      1
  2469   1762   1763      1
  2470   1762   1765      1
  2471   1763   1766      1
  2472   1764   1765      1
  2473   1765   1768      1
  2474   1765   1818      1
  2475   1766   1767      1
  2476   1767   1769      1
  2477   1768   1770      1
  2478   1768   1821      1
  2479   1769   1770      1
  2480   1770   1771      1
  2481   1771   1773      1
  2482   1771   1824      1
  2483   1772   1773      1
  2484   1774   1775      1
  2485   1774   1825      1
  2486   1775   1777      1
  2487   1776   1779      1
  2488   1777   1779      1
  2489   1777   1780      1
  2490   1778   1826      1
  2491   1779   1782      1
  2492   1780   1783      1
  2493   1780   1831      1
  2494   1781   1782      1
  2495   1782   1784      1
  2496   1783   1785      1
  2497   1784   1785      1
  2498   1786   1787      1
  2499   1787   1789      1
  2500   1787   1834      1
  2501   1788   1790      1
  2502   1789   1790      1
  2503   1789   1792      1
  2504   1790   1791      1
  2505   1792   1840      1
  2506   1793   1794      1
  2507   1793   1795      1
  2508   1794   1796      1
  2509   1794   1844      1
  2510   1796   1850      1
  2511   1797   1798      1
  2512   1797   1845      1
  2513   1798   1799      1
  2514   1799   1800      1
  2515   1800   1804      1
  2516   1801   1803      1
  2517   1801   1804      1
  2518   1802   1806      1
  2519   1802   1855      1
  2520   1803   1805      1
  2521   1804   1807      1
  2522   1805   1806      1
  2523   1806   1807      1
  2524   1807   1808      1
  2525   1808   1809      1
  2526   1809   1813      1
  2527   1810   1814      1
  2528   1811   1812      1
  2529   1813   1814      1
  2530   1813   1865      1
  2531   1814   1815      1
  2532   1815   1816      1
  2533   1815   1817      1
  2534   1816   1818      1
  2535   1817   1819      1
  2536   1817   1868      1
  2537   1818   1819      1
  2538   1819   1820      1
  2539   1820   1872      1
  2540   1821   1822      1
  2541   1822   1823      1
  2542   1823   1824      1
  2543   1825   1828      1
  2544   1826   1827      1
  2545   1827   1829      1
  2546   1828   1829      1
  2547   1828   1831      1
  2548   1829   1830      1
  2549   1830   1832      1
  2550   1830   1891      1
  2551   1833   1836      1
  2552   1833   1837      1
  2553   1834   1835      1
  2554   1834   1836      1
  2555   1835   1839      1
  2556   1836   1840      1
  2557   1837   1897      1
  2558   1839   1841      1
  2559   1840   1842      1
  2560   1841   1842      1
  2561   1841   1843      1
  2562   1842   1844      1
  2563   1843   1846      1
  2564   1843   1847      1
  2565   1844   1845      1
  2566   1844   1847      1
  2567   1846   1901      1
  2568   1846   1906      1
  2569   1847   1848      1
  2570   1847   1851      1
  2571   1848   1849      1
  2572   1849   1852      1
  2573   1850   1851      1
  2574   1851   1853      1
  2575   1852   1854      1
  2576   1852   1906      1
  2577   1853   1854      1
  2578   1853   1855      1
  2579   1854   1856      1
  2580   1855   1857      1
  2581   1856   1857      1
  2582   1856   1914      1
  2583   1857   1858      1
  2584   1858   1860      1
  2585   1859   1860      1
  2586   1859   1861      1
  2587   1859   1914      1
  2588   1860   1862      1
  2589   1861   1864      1
  2590   1861   1919      1
  2591   1862   1866      1
  2592   1862   1920      1
  2593   1863   1864      1
  2594   1863   1865      1
  2595   1864   1867      1
  2596   1865   1868      1
  2597   1866   1867      1
  2598   1867   1869      1
  2599   1868   1869      1
  2600   1869   1870      1
  2601   1870   1872      1
  2602   1871   1873      1
  2603   1871   1926      1
  2604   1872   1874      1
  2605   1873   1874      1
  2606   1873   1875      1
  2607   1874   1876      1
  2608   1875   1877      1
  2609   1875   1880      1
  2610   1876   1881      1
  2611   1877   1879      1
  2612   1877   1934      1
  2613   1878   1880      1
  2614   1880   1882      1
  2615   1881   1883      1
  2616   1882   1883      1
  2617   1884   1885      1
  2618   1884   1886      1
  2619   1886   1887      1
  2620   1886   1891      1
  2621   1887   1889      1
  2622   1889   1893      1
  2623   1890   1892      1
  2624   1891   1892      1
  2625   1893   1894      1
  2626   1894   1895      1
  2627   1895   1896      1
  2628   1896   1898      1
  2629   1898   1899      1
  2630   1898   1900      1
  2631   1899   1902      1
  2632   1900   1903      1
  2633   1901   1902      1
  2634   1902   1905      1
  2635   1903   1904      1
  2636   1904   1907      1
  2637   1905   1907      1
  2638   1907   1908      1
  2639   1908   1909      1
  2640   1908   1910      1
  2641   1909   1912      1
  2642   1910   1913      1
  2643   1911   1914      1
  2644   1912   1915      1
  2645   1913   1915      1
  2646   1915   1916      1
  2647   1916   1917      1
  2648   1916   1918      1
  2649   1917   1919      1
  2650   1918   1920      1
  2651   1919   1922      1
  2652   1920   1921      1
  2653   1921   1925      1
  2654   1922   1924      1
  2655   1923   1928      1
  2656   1924   1926      1
  2657   1924   1927      1
  2658   1925   1926      1
  2659   1927   1928      1
  2660   1927   1930      1
  2661   1928   1929      1
  2662   1929   1932      1
  2663   1930   1933      1
  2664   1932   1934      1
  2665   1933   1934      1
  2666   1935   1936      1
  2667   1936   1937      1
  2668   1938   1939     du
  2669   1939   1940     du
  2670   1940   1941     du
  2671   1941   1938     du
  2672   1942   1943     du
  2673   1943   1944     du
  2674   1944   1945     du
  2675   1945   1942     du
  2676   1941   1945     du
  2677   1942   1938     du
  2678   1940   1944     du
  2679   1943   1939     du
