@<TRIPOS>MOLECULE
LAMMPS data file via write_data, version 29 Oct 2020, timestep = 1000 > lmp2SYBYLmol2 v3.0 / 22 May 2023 w/remove_PBC_bonds=True
  1929 2681    0    0    0
SMALL
NO_CHARGES
****
Energy = 0

@<TRIPOS>ATOM
      1 C          -13.2602   -12.6039    12.5298 C       5      r5    -0.0023
      2 C          -13.0718   -11.2306   -11.8503 C       5      r5    -0.0024
      3 C          -12.6221    -8.8580   -10.1119 C       5      r5     0.0031
      4 C          -12.2160   -11.3835   -10.5795 C       7      r7     0.0152
      5 C          -11.8332   -10.0221   -10.0453 C       5      r5     0.0231
      6 C          -11.5415   -12.5416   -10.1485 C       7      r7     0.0150
      7 C          -10.4722    -9.6085    -9.9300 C       6      r6    -0.0007
      8 C          -10.1651   -12.7508    -9.5120 C       7      r7     0.0056
      9 C           -9.3623   -11.7010    -8.8891 C       6      r6     0.0062
     10 C           -9.3493   -10.3400    -9.4731 C       6      r6     0.0009
     11 C           -8.1605    -9.4257    -9.5187 C       6      r6    -0.0022
     12 C           -8.1326   -11.8205    12.2887 C       6      r6    -0.0037
     13 C           -7.1777    -9.9008    -8.5936 C       6      r6    -0.0049
     14 C           -6.7233   -11.4690    12.4543 C       6      r6    -0.0054
     15 C           -6.1270   -12.2896   -11.5561 C       6      r6    -0.0049
     16 C           -5.8360    -9.4866    -9.0217 C       6      r6    -0.0023
     17 C           -4.7981   -11.9978   -10.9708 C       7      r7     0.0026
     18 C           -4.5073    -9.9719    -8.6441 C       6      r6    -0.0033
     19 C           -4.5226   -12.3381    -9.5466 C       7      r7     0.0318
     20 C           -3.8769   -11.3385    -8.7025 C       6      r6     0.0047
     21 C           -3.9125   -11.3332   -11.9152 C       0      r0     0.0466
     22 C           -3.7366    -8.8630   -11.8028 C       7      r7     0.0035
     23 C           -3.6264    -8.8608    -8.5340 C       6      r6    -0.0008
     24 C           -3.1786   -10.1484   -11.4051 C       7      r7    -0.0489
     25 C           -1.9052   -10.4632   -10.8477 C       5      r5     0.2334
     26 O           -1.5491   -11.9194   -10.6925 O       5      r5    -0.5129
     27 C           -0.9789    -9.5133   -10.4898 C       6      r6    -0.0499
     28 C           -0.1955   -11.6917   -10.1289 C       5      r5     0.2374
     29 C            0.1067   -10.3355   -10.0810 C       6      r6    -0.0448
     30 C            0.7935   -12.7177    -9.9901 C       0      r0    -0.0481
     31 C            1.2707   -11.7157   -12.3727 C       6      r6    -0.0073
     32 C            1.3216    -9.6722    -9.7584 C       6      r6     0.0085
     33 C            1.7823   -12.8234    -8.9302 C       7      r7     0.0158
     34 C            2.6039   -11.7329   -11.8294 C       6      r6     0.0236
     35 C            2.5973   -10.1191    -9.9533 C       6      r6    -0.0123
     36 C            3.0391   -12.3683    -9.4072 C       5      r5     0.0392
     37 C            3.2006   -11.3721   -10.4211 C       6      r6     0.0024
     38 C            3.4619    -9.0715    -9.5338 C       6      r6     0.0002
     39 C            4.3090   -12.7024    -8.8524 C       6      r6     0.0294
     40 C            4.8985   -11.2980   -10.7280 C       6      r6     0.0076
     41 C            4.9112    -9.0132    -9.6206 C       6      r6    -0.0020
     42 C            5.0308   -11.7709   -12.1411 C       6      r6     0.0255
     43 C            5.5012    -9.8900   -10.6741 C       6      r6    -0.0038
     44 C            5.4402   -12.1156    -9.5314 C       6      r6     0.0140
     45 C            6.4032    -9.4113   -11.5805 C       6      r6     0.0010
     46 C            6.6976   -12.0596    -8.8975 C       6      r6    -0.0021
     47 C            7.2171   -10.7923    -8.4833 C       5      r5    -0.0016
     48 C            7.9989    -9.8904    -9.3094 C       5      r5    -0.0007
     49 C            9.0895   -10.4713    -9.9950 C       5      r5    -0.0016
     50 C            9.3040   -11.7988   -10.5482 C       5      r5     0.0010
     51 C           10.0063    -9.3026   -10.5279 C       5      r5    -0.0020
     52 C           10.1046   -11.3686   -11.8684 C       6      r6     0.0002
     53 C           10.5384    -9.8418   -11.7391 C       5      r5    -0.0008
     54 C           11.1105   -12.5717   -11.9409 C       6      r6    -0.0030
     55 C           12.1637   -10.3786    -9.1766 C       0      r0     0.0186
     56 C           12.4495   -12.2923   -11.6770 C       5      r5     0.0023
     57 C           12.8968   -10.1005   -10.2691 C       7      r7     0.0081
     58 C           13.1469   -10.9498   -11.5957 C       5      r5     0.0036
     59 C           13.7255    -8.7972   -10.2312 C       7      r7     0.0051
     60 C          -12.9852    -5.8231   -10.7358 C       5      r5    -0.0009
     61 C          -12.7635    -4.4860   -11.1094 C       5      r5    -0.0010
     62 C          -11.8169    -6.4430   -10.5160 C       6      r6     0.0000
     63 C          -11.6788    -7.7998   -10.0801 C       6      r6    -0.0017
     64 C          -11.3401    -4.3312   -11.1144 C       6      r6    -0.0005
     65 C          -10.7581    -5.5930   -10.7828 C       6      r6    -0.0011
     66 C          -10.3239    -8.1539    -9.9427 C       6      r6     0.0009
     67 C           -9.4289    -5.9298   -10.6957 C       6      r6    -0.0004
     68 C           -9.2150    -7.3180   -10.2556 C       6      r6     0.0001
     69 C           -8.6039    -4.8889   -11.3298 C       6      r6     0.0003
     70 C           -8.0225    -8.0230    -9.9768 C       6      r6    -0.0011
     71 C           -7.1759    -4.9410   -11.2671 C       5      r5     0.0006
     72 C           -6.7049    -7.3576   -10.1117 C       6      r6    -0.0009
     73 C           -6.4437    -6.0246   -10.6861 C       5      r5    -0.0005
     74 C           -5.6185    -8.1403    -9.5706 C       6      r6    -0.0011
     75 C           -5.0238    -5.3485   -10.6464 C       6      r6    -0.0017
     76 C           -4.7516    -5.2238    -8.9102 C       6      r6     0.0004
     77 C           -4.2456    -6.3187   -11.4251 C       6      r6    -0.0001
     78 C           -4.1876    -7.7445    -9.4020 C       6      r6    -0.0004
     79 C           -3.6747    -6.3661    -8.7553 C       6      r6    -0.0001
     80 C           -3.4618    -7.5773   -10.9866 C       6      r6    -0.0024
     81 C           -2.3322    -6.1826    -9.6157 C       5      r5     0.0008
     82 C           -2.0652    -7.2104   -10.6365 C       5      r5    -0.0049
     83 C           -1.4964    -5.1139    -9.3067 C       7      r7     0.0001
     84 C           -0.9025    -8.0350   -10.5761 C       6      r6     0.0072
     85 C           -0.6144    -4.2458   -10.3852 C       5      r5     0.0003
     86 C            0.1224    -5.0752   -11.4146 C       5      r5    -0.0012
     87 C            0.3867    -7.3717   -10.2768 C       6      r6    -0.0008
     88 C            0.9841    -6.1990   -10.9557 C       5      r5    -0.0037
     89 C            1.1597    -4.3212   -12.1981 C       6      r6    -0.0014
     90 C            1.3770    -8.2254    -9.7507 C       6      r6     0.0006
     91 C            2.2949    -5.6338   -10.6976 C       5      r5    -0.0003
     92 C            2.3191    -4.9849    -9.3040 C       5      r5     0.0027
     93 C            2.5044    -4.7034   -11.8081 C       6      r6     0.0001
     94 C            2.7238    -7.9592    -9.1617 C       6      r6    -0.0032
     95 C            5.5837    -7.9732    -8.8412 C       6      r6    -0.0001
     96 C            6.0254    -5.0869   -12.1387 C       5      r5     0.0016
     97 C            6.9478    -7.5151    -8.8270 C       7      r7     0.0001
     98 C            7.2649    -6.8824   -11.5559 C       5      r5     0.0008
     99 C            7.2651    -8.2615   -11.1053 C       7      r7    -0.0003
    100 C            7.2605    -4.5033   -11.5403 C       5      r5     0.0015
    101 C            7.9173    -5.6742   -10.9816 C       5      r5     0.0016
    102 C            7.9126    -8.4227    -9.7562 C       5      r5    -0.0018
    103 C            9.2266    -5.4796   -10.3483 C       7      r7     0.0004
    104 C            9.4211    -8.0676   -10.1266 C       5      r5    -0.0011
    105 C            9.9981    -6.7365   -10.1960 C       7      r7    -0.0004
    106 C           11.2753    -6.6298    -9.5278 C       7      r7     0.0000
    107 C           11.7719    -7.7815    -8.7413 C       7      r7    -0.0001
    108 C           12.0456    -5.4346   -10.0368 C       7      r7    -0.0006
    109 C           12.1126    -7.8944   -12.1573 C       6      r6    -0.0010
    110 C           12.6193    -5.5637   -11.3724 C       6      r6    -0.0012
    111 C           13.1602    -8.1034    -8.9107 C       7      r7    -0.0019
    112 C           13.2500    -7.7991   -11.3757 C       6      r6    -0.0016
    113 C           13.7532    -6.4802   -11.2331 C       6      r6    -0.0009
    114 C          -13.9208    -3.5768   -11.0971 C       0      r0     0.0008
    115 C          -12.4656    -3.1155    -8.3744 C       5      r5    -0.0005
    116 C          -11.5391    -0.1396    -9.7080 C       7      r7    -0.0003
    117 C          -11.3451    -2.6013    -9.0523 C       5      r5     0.0011
    118 C          -11.4618    -1.5301   -10.1306 C       7      r7     0.0019
    119 C          -10.8411    -1.8192   -11.4524 C       7      r7     0.0001
    120 C          -10.4919    -3.2330   -11.5112 C       6      r6     0.0010
    121 C          -10.2590    -0.9180   -12.4863 C       6      r6    -0.0004
    122 C          -10.1831    -3.3536    -8.6099 C       5      r5     0.0001
    123 C           -9.1836    -3.7024   -11.9877 C       6      r6     0.0007
    124 C           -9.1930    -0.3874    -9.0216 C       5      r5     0.0003
    125 C           -8.8786    -3.0154    -8.9270 C       5      r5     0.0005
    126 C           -8.6555    -1.7054    -9.3251 C       5      r5     0.0003
    127 C           -7.5698    -3.6021    -8.6445 C       5      r5     0.0006
    128 C           -7.3156    -1.5943    -9.6650 C       5      r5    -0.0002
    129 C           -7.0737    -0.2293    -9.8926 C       6      r6     0.0002
    130 C           -6.4744    -2.4171   -12.4582 C       6      r6     0.0000
    131 C           -6.5983    -2.7829    -9.2920 C       5      r5     0.0006
    132 C           -6.3260    -3.6823   -11.7066 C       6      r6     0.0007
    133 C           -5.4710    -1.2426   -12.4935 C       6      r6     0.0012
    134 C           -5.1549    -2.8356    -9.1381 C       7      r7     0.0012
    135 C           -5.0092    -4.0008   -11.4097 C       6      r6    -0.0012
    136 C           -4.8113    -0.1403   -11.2582 C       5      r5     0.0003
    137 C           -4.8024    -1.3779    -8.9789 C       7      r7    -0.0004
    138 C           -4.1911    -3.8407    -8.8528 C       7      r7     0.0008
    139 C           -3.8847    -3.1866   -11.9638 C       6      r6     0.0000
    140 C           -4.0104    -0.7774   -10.0435 C       0      r0     0.0010
    141 C           -2.4451    -3.4801   -11.9948 C       6      r6    -0.0013
    142 C           -2.5904    -0.8681    -9.9027 C       6      r6    -0.0004
    143 C           -1.5945    -3.1255   -10.8808 C       5      r5     0.0012
    144 C           -1.5704    -1.9187   -10.1610 C       6      r6     0.0016
    145 C           -0.4137    -2.1905    -9.2934 C       6      r6    -0.0002
    146 C            0.3700    -3.3361    -9.6144 C       5      r5     0.0022
    147 C            1.5189    -3.8190    -8.8534 C       5      r5     0.0009
    148 C            2.9288     0.1055   -11.0317 C       6      r6    -0.0004
    149 C            3.6079    -0.8429    -8.7736 C       6      r6    -0.0004
    150 C            3.6507    -3.8598   -12.3196 C       6      r6     0.0007
    151 C            3.7508    -0.8290   -10.2526 C       6      r6     0.0002
    152 C            4.7709    -1.4641   -11.0506 C       6      r6     0.0004
    153 C            5.6275    -2.3019    -8.9529 C       6      r6    -0.0005
    154 C            5.9739    -1.9506   -10.3589 C       6      r6    -0.0000
    155 C            7.3813    -1.9351   -10.8310 C       6      r6    -0.0010
    156 C            7.9167    -3.1408   -11.4303 C       6      r6     0.0010
    157 C            8.3135    -0.7629   -10.6241 C       6      r6    -0.0020
    158 C            8.5786    -3.5305    -8.7991 C       5      r5     0.0007
    159 C            9.1888    -2.8493   -12.1426 C       6      r6     0.0004
    160 C            9.5058    -4.2539    -9.5582 C       5      r5     0.0004
    161 C            9.7169    -1.0759   -10.7482 C       6      r6    -0.0011
    162 C           10.3195    -2.3065   -11.3562 C       6      r6     0.0000
    163 C           10.6111    -3.2589    -9.9478 C       5      r5     0.0007
    164 C           10.6421    -2.4121    -8.6553 C       6      r6     0.0009
    165 C           11.5977    -1.4036   -12.2183 C       6      r6     0.0002
    166 C           11.8951    -0.3689   -11.1885 C       6      r6    -0.0002
    167 C           11.9404    -3.9724    -9.7659 C       7      r7    -0.0000
    168 C           13.2016    -3.3284   -12.3715 C       0      r0     0.0007
    169 C           13.2414    -3.2939    -9.8418 C       7      r7     0.0005
    170 C          -13.8815    -2.7407    -8.6898 C       7      r7     0.0008
    171 C          -13.8693     4.2128    -9.8562 C       7      r7    -0.0007
    172 C          -13.3480     2.9148    -9.4875 C       7      r7    -0.0012
    173 C          -12.0615     2.4891   -10.0806 C       5      r5    -0.0009
    174 C          -11.6839     1.1403   -10.5162 C       5      r5    -0.0001
    175 C          -11.1031     3.4808   -10.5540 C       5      r5     0.0022
    176 C          -10.5661     1.4020   -11.4037 C       6      r6    -0.0005
    177 C          -10.5388     0.1608    -8.6830 C       7      r7     0.0008
    178 C          -10.1906     2.7736   -11.4348 C       6      r6     0.0027
    179 C           -9.7866     0.4777   -12.3112 C       6      r6    -0.0001
    180 C           -8.9283     3.2847   -12.1602 C       6      r6    -0.0011
    181 C           -8.2488     0.4945    -9.5444 C       6      r6    -0.0008
    182 C           -8.0893     1.9700    -9.4552 C       6      r6     0.0002
    183 C           -7.8220     3.8319   -11.0498 C       6      r6     0.0013
    184 C           -7.2148     2.6813   -10.3908 C       6      r6    -0.0006
    185 C           -6.1530     1.8687   -10.8694 C       6      r6     0.0005
    186 C           -6.0597     0.4931   -10.6087 C       6      r6    -0.0001
    187 C           -5.0029     2.2587   -11.8015 C       6      r6     0.0003
    188 C           -4.5423     4.3037   -10.3876 C       6      r6    -0.0013
    189 C           -4.2278     0.9887   -11.9865 C       5      r5     0.0000
    190 C           -3.9729     3.1290   -11.0268 C       6      r6     0.0004
    191 C           -3.1297     2.3446    -8.9467 C       6      r6    -0.0001
    192 C           -2.8357     2.3981   -10.4201 C       6      r6    -0.0000
    193 C           -2.3216     0.0337    -8.7914 C       6      r6    -0.0006
    194 C           -1.7444     1.6703   -12.4606 C       6      r6     0.0002
    195 C           -1.5154     2.2314   -11.1172 C       6      r6     0.0014
    196 C           -0.3222     2.0631   -10.3190 C       6      r6     0.0009
    197 C            0.1146     2.5985    -9.0379 C       6      r6     0.0015
    198 C            0.3822     4.0202    -8.7585 C       6      r6    -0.0003
    199 C            0.9445     1.5881   -11.0459 C       6      r6     0.0002
    200 C            1.7465     0.5074   -10.2559 C       6      r6    -0.0005
    201 C            1.6575     0.4583    -8.7972 C       6      r6    -0.0003
    202 C            2.0220     2.6403   -10.9058 C       5      r5     0.0011
    203 C            2.5581     3.5316    -9.9688 C       6      r6     0.0003
    204 C            2.4340     3.1218   -12.1383 C       5      r5     0.0003
    205 C            3.3971     0.2819   -12.4489 C       6      r6     0.0004
    206 C            3.2467     4.3290   -12.0415 C       5      r5    -0.0021
    207 C            3.6183     4.1924   -10.6481 C       6      r6    -0.0010
    208 C            4.9200     3.5203    -8.5955 C       6      r6    -0.0073
    209 C            5.6503     1.1008   -11.8735 C       0      r0    -0.0010
    210 C            6.7760     0.9490   -11.1808 C       0      r0    -0.0001
    211 C            7.2276     3.9549    -8.8062 C       6      r6    -0.0479
    212 C            7.9224     0.6506   -10.4524 C       6      r6    -0.0001
    213 C            8.5482     3.6930    -8.4456 C       0      r0     0.0455
    214 C            8.9580     1.7402   -10.1322 C       6      r6    -0.0028
    215 C            9.2976     3.0659    -9.5162 C       6      r6     0.0086
    216 C           10.1535     1.3731   -10.8957 C       6      r6     0.0005
    217 C           10.2528     3.7299   -11.5646 C       6      r6     0.0191
    218 C           10.4208     3.8710   -10.1184 C       6      r6     0.0238
    219 C           10.6938     0.0507   -10.5450 C       6      r6    -0.0019
    220 C           10.7989     2.3186   -11.9330 C       6      r6    -0.0065
    221 C           12.3825     2.0647   -11.7367 C       6      r6    -0.0018
    222 C           12.8354     0.7067   -11.6385 C       6      r6    -0.0014
    223 C           13.4307     3.0312   -12.0585 C       6      r6    -0.0025
    224 C           13.7207     4.3239   -11.2892 C       7      r7     0.0006
    225 C          -13.2349     5.3437    -9.1351 C       7      r7    -0.0006
    226 C          -12.7878     8.1039   -10.7221 C       6      r6     0.0119
    227 C          -11.9960     5.8033    -9.7633 C       6      r6     0.0052
    228 C          -11.9004     7.2455    -9.9569 C       6      r6     0.0054
    229 C          -10.8973     4.8876   -10.1515 C       6      r6     0.0065
    230 C          -10.6298     7.7764    -9.4650 C       6      r6     0.0004
    231 C           -9.5958     5.5828   -10.1219 C       6      r6     0.0072
    232 C           -9.4564     6.9355    -9.5093 C       6      r6     0.0015
    233 C           -8.3290     7.4057    -8.7819 C       6      r6    -0.0008
    234 C           -8.3143     4.8598   -10.0231 C       6      r6    -0.0011
    235 C           -7.7368     5.0117    -8.7026 C       6      r6    -0.0019
    236 C           -6.5954     4.5286   -11.9985 C       6      r6    -0.0015
    237 C           -6.5905     7.3937   -11.4343 C       6      r6    -0.0024
    238 C           -5.6214     6.4900   -10.6949 C       6      r6    -0.0003
    239 C           -5.5306     5.1362   -11.0829 C       6      r6    -0.0018
    240 C           -4.6371     7.3285    -9.9977 C       6      r6    -0.0075
    241 C           -3.9973     7.0547    -8.7526 C       6      r6     0.0057
    242 C           -4.1170     4.6040    -8.9944 C       6      r6    -0.0004
    243 C           -2.3796     8.5318   -11.5519 C       5      r5    -0.0009
    244 C           -2.2828     4.9628   -12.1146 C       0      r0     0.0010
    245 C           -1.7570     5.3230   -11.0276 C       0      r0    -0.0007
    246 C           -1.3447     8.3376   -10.5194 C       6      r6    -0.0016
    247 C           -1.1855     5.7568    -9.8952 C       5      r5    -0.0018
    248 C           -0.9631     7.1817    -9.7403 C       6      r6    -0.0017
    249 C           -0.7849     4.9138    -8.5236 C       6      r6    -0.0002
    250 C           -0.2385     7.3976    -8.4875 C       6      r6    -0.0017
    251 C            1.8275     4.3210    -8.8182 C       6      r6    -0.0009
    252 C            2.7550     7.9831   -12.2192 C       6      r6     0.0046
    253 C            3.5283     6.8058   -12.1238 C       6      r6     0.0008
    254 C            3.9103     5.8948    -8.8639 C       6      r6    -0.0005
    255 C            4.6356     4.6209    -9.6613 C       6      r6     0.0101
    256 C            4.8628     6.7702    -8.5322 C       0      r0     0.0038
    257 C            4.8908     6.7824   -11.6987 C       6      r6    -0.0059
    258 C            5.3813     7.9584   -11.2694 C       6      r6     0.0095
    259 C            5.7833     5.6596   -11.6188 C       6      r6     0.0435
    260 C            5.8234     5.0643   -10.3999 C       6      r6    -0.0748
    261 C            6.5751     8.0985   -10.6716 C       5      r5     0.0061
    262 C            6.8205     7.9961    -9.2614 C       5      r5     0.0251
    263 C            6.9989     5.5894   -12.4357 C       6      r6    -0.0573
    264 C            6.9806     4.8744    -9.8169 C       6      r6     0.2463
    265 C            7.7267     8.4431   -11.3649 C       5      r5     0.0165
    266 C            8.0591     8.5379    -9.0188 C       5      r5     0.0149
    267 C            8.2000     5.3398   -11.7523 C       6      r6     0.2344
    268 O            8.2217     5.6242   -10.2655 O       6      r6    -0.5089
    269 C            9.2326     4.4762   -12.3331 C       6      r6    -0.0390
    270 C           10.1716     8.5253   -10.3966 C       7      r7     0.0040
    271 C           10.8498     7.5061    -9.5319 C       7      r7     0.0191
    272 C           11.2413     4.9452    -9.5386 C       7      r7     0.0195
    273 C           11.5575     6.3448   -10.1213 C       7      r7     0.0121
    274 C           11.9348     4.4976    -8.3526 C       7      r7    -0.0049
    275 C           12.8218     6.6276   -10.7928 C       0      r0    -0.0040
    276 C           13.2674     5.5739   -11.7794 C       7      r7     0.0096
    277 C           13.6602     7.8826   -10.9438 C       6      r6     0.0032
    278 C          -13.8862    12.1589   -10.5300 C       6      r6     0.0040
    279 C          -12.7335    10.2662   -12.0748 C       6      r6     0.0067
    280 C          -12.4924    12.2743   -10.1250 C       6      r6     0.0094
    281 C          -12.1798    11.1004    -9.2978 C       6      r6    -0.0014
    282 C          -11.9029     9.2702   -11.2310 C       6      r6     0.0249
    283 C          -11.2887    10.0609    -9.9564 C       6      r6    -0.0059
    284 C          -10.6647     9.0959    -8.7518 C       6      r6    -0.0021
    285 C          -10.3606     9.0891   -11.8332 C       6      r6    -0.0372
    286 C          -10.0720    10.9210   -10.3882 C       6      r6    -0.0000
    287 C           -9.6138    11.8884    -9.3220 C       6      r6    -0.0041
    288 C           -9.4336    10.0517   -11.3357 C       6      r6     0.0032
    289 C           -8.5956    12.8373    12.4102 C       6      r6    -0.0046
    290 C           -8.0002    10.3705   -11.9835 C       6      r6    -0.0081
    291 C           -7.7989    11.8940   -11.9876 C       6      r6    -0.0045
    292 C           -6.6870     9.9594   -11.3326 C       6      r6    -0.0006
    293 C           -6.5959    12.3148   -11.4396 C       6      r6    -0.0002
    294 C           -6.2381     8.7503   -11.0290 C       6      r6     0.0000
    295 C           -5.6378    11.1598   -11.1771 C       6      r6    -0.0046
    296 C           -4.8920    11.1063    -9.7872 C       6      r6     0.0439
    297 C           -4.7297    12.2579    -8.9986 C       6      r6    -0.0477
    298 C           -4.6637     8.7513   -10.4338 C       6      r6     0.0065
    299 C           -4.5263     9.8074    -9.3352 C       6      r6    -0.0565
    300 C           -3.6342     9.1404   -11.4238 C       5      r5     0.0019
    301 C           -1.4931    12.0824    -8.1239 C       0      r0     0.0452
    302 C           -0.9614    11.0011    -8.4487 C       0      r0     0.0186
    303 C           -0.4476     9.4979   -10.3475 C       6      r6     0.0072
    304 C           -0.3277     9.9169    -8.8842 C       6      r6     0.0045
    305 C            0.3859     9.8000   -11.4858 C       7      r7     0.0034
    306 C            0.5230    12.9754   -12.2500 C       0      r0     0.0294
    307 C            0.7869    12.2353   -11.0531 C       0      r0     0.0594
    308 C            1.3572    10.8569   -11.2709 C       7      r7    -0.0426
    309 C            2.6977    10.4358   -11.2146 C       5      r5     0.2325
    310 C            3.2467     9.1620   -11.4988 C       6      r6    -0.0404
    311 O            3.7514    11.4327   -10.7771 O       5      r5    -0.4984
    312 C            4.6357     9.1911   -11.1660 C       6      r6    -0.0351
    313 C            4.9911    10.5102   -10.7328 C       5      r5     0.2242
    314 C            6.2815    10.9636   -10.6252 C       0      r0    -0.0390
    315 C            7.6088    11.2777   -10.7222 C       0      r0     0.0157
    316 C            8.2317    11.2201   -12.0852 C       7      r7    -0.0022
    317 C            8.4777    11.8585    -9.5659 C       0      r0    -0.0030
    318 C            8.7167     8.6582   -10.3516 C       5      r5     0.0167
    319 C            9.5054    12.8307    -9.9358 C       0      r0    -0.0010
    320 C           10.6553    12.0237   -12.0426 C       6      r6    -0.0055
    321 C           10.7319     9.4079   -11.4527 C       0      r0    -0.0080
    322 C           10.9174    12.5133    -9.4563 C       6      r6    -0.0027
    323 C           11.0556    10.8427   -11.2801 C       0      r0    -0.0045
    324 C           11.6740    12.6975    -8.2252 C       6      r6     0.0042
    325 C           11.6150    11.4236   -10.0505 C       6      r6    -0.0033
    326 C           13.0590     8.7740   -11.9107 C       6      r6     0.0056
    327 C           13.0918    11.3631    -9.7672 C       6      r6    -0.0005
    328 C           13.3456    10.9303    -8.3909 C       6      r6    -0.0034
    329 C           13.5616    12.6958   -11.8274 C       5      r5    -0.0024
    330 O          -12.7472   -11.1906    -7.1426 O       6      r6    -0.4898
    331 C          -12.4021   -12.0614    -5.8992 C       6      r6     0.1964
    332 C          -12.2204    -9.8454    -6.8864 C       6      r6     0.2562
    333 C          -11.9626   -11.6784    -4.6622 C       6      r6     0.1548
    334 C          -11.5653    -9.5612    -5.6055 C       6      r6    -0.0593
    335 C          -11.5262   -10.3682    -4.4805 C       6      r6     0.0093
    336 C           -8.6380   -12.8263    -6.5326 C       6      r6     0.0026
    337 C           -8.5358   -11.8950    -7.6464 C       6      r6    -0.0001
    338 C           -8.3852   -12.4420    -5.1430 C       6      r6     0.0004
    339 C           -8.1907    -8.7026    -5.6879 C       5      r5    -0.0019
    340 C           -8.0946   -11.0346    -5.0226 C       6      r6    -0.0015
    341 C           -7.8932   -10.0633    -6.1354 C       6      r6    -0.0022
    342 C           -7.6955   -10.6924    -7.4456 C       6      r6    -0.0042
    343 C           -4.6964   -12.7743    -5.2006 C       6      r6     0.0150
    344 C           -3.4684   -12.3399    -4.4956 C       6      r6     0.0018
    345 C           -2.6567   -11.4777    -7.9554 C       6      r6     0.0205
    346 C           -2.3296    -8.9549    -7.8346 C       6      r6     0.0002
    347 C           -1.9083   -10.3361    -7.4214 C       6      r6    -0.0031
    348 C           -1.7378   -12.5621    -7.6623 C       5      r5     0.0133
    349 C           -1.6966    -9.4616    -4.5769 C       6      r6    -0.0007
    350 C           -0.6283   -10.5839    -6.7659 C       5      r5    -0.0005
    351 C           -0.5659   -12.0416    -6.9444 C       5      r5    -0.0045
    352 C            0.3917    -9.8786    -5.8784 C       7      r7    -0.0046
    353 C            0.6787   -10.3409    -4.4694 C       7      r7    -0.0021
    354 C            3.2279   -11.5777    -4.3586 C       5      r5    -0.0034
    355 C            3.9274    -9.3069    -4.4114 C       7      r7     0.0009
    356 C            4.3314   -10.7208    -4.5208 C       7      r7     0.0004
    357 C            5.6966   -10.8870    -5.2081 C       6      r6     0.0004
    358 C            6.3034   -12.0677    -4.8834 C       6      r6     0.0010
    359 C            6.5356   -10.0333    -6.0748 C       6      r6    -0.0008
    360 C            7.4475   -10.7326    -6.9786 C       6      r6    -0.0008
    361 C            7.7116   -12.4807    -5.3249 C       6      r6    -0.0034
    362 C            7.7995   -12.1057    -6.7258 C       6      r6    -0.0045
    363 C            8.6501   -12.7881    -4.2432 C       6      r6    -0.0058
    364 C            9.8228    -9.1817    -4.5474 C       5      r5    -0.0017
    365 C           10.2218   -12.3670    -4.2391 C       6      r6    -0.0018
    366 C           10.5445    -9.9690    -5.6734 C       6      r6     0.0031
    367 C           10.6495   -11.3336    -5.3940 C       6      r6     0.0020
    368 C           10.9896    -9.5621    -7.0738 C       6      r6     0.0021
    369 C           11.3617   -12.2920    -6.1821 C       6      r6     0.0124
    370 C           11.4643   -10.6607    -7.9627 C       6      r6     0.0082
    371 C           11.4974   -12.0713    -7.5497 C       6      r6     0.0123
    372 C          -13.1280    -6.2479    -6.8607 C       5      r5    -0.0021
    373 C          -12.7725    -4.8874    -6.5194 C       7      r7    -0.0033
    374 C          -12.7663    -8.5942    -7.2698 C       6      r6    -0.0497
    375 C          -12.1521    -7.3090    -6.9117 C       6      r6     0.0074
    376 C          -11.0025    -7.3187    -6.1154 C       6      r6    -0.0111
    377 C          -10.9114    -8.3764    -5.2890 C       6      r6     0.0156
    378 C          -10.5110    -4.5150    -7.7568 C       5      r5     0.0002
    379 C           -9.8112    -6.7528    -6.5402 C       5      r5     0.0021
    380 C           -9.5722    -5.4649    -7.1725 C       5      r5    -0.0007
    381 C           -8.5993    -7.3747    -6.1487 C       5      r5    -0.0006
    382 C           -8.1284    -5.3310    -7.0322 C       6      r6     0.0011
    383 C           -7.6728    -6.3492    -6.1394 C       6      r6     0.0006
    384 C           -7.1853    -4.7264    -7.8766 C       6      r6     0.0012
    385 C           -6.3559    -6.3427    -5.6639 C       6      r6     0.0012
    386 C           -5.8467    -5.2567    -7.8373 C       6      r6     0.0013
    387 C           -5.6535    -6.8505    -4.5247 C       5      r5    -0.0002
    388 C           -5.4820    -5.9545    -6.6732 C       6      r6     0.0013
    389 C           -4.2580    -6.7158    -4.8477 C       5      r5     0.0002
    390 C           -4.1254    -6.3421    -6.2580 C       6      r6     0.0004
    391 C           -3.2117    -6.7068    -7.3314 C       6      r6     0.0002
    392 C           -2.1343    -7.7013    -7.1946 C       6      r6    -0.0003
    393 C           -1.9004    -4.5102    -8.0245 C       6      r6     0.0009
    394 C           -1.6305    -8.0347    -4.8171 C       6      r6     0.0003
    395 C           -1.1639    -4.8286    -6.8074 C       6      r6    -0.0002
    396 C           -1.0240    -7.5369    -6.1714 C       5      r5     0.0003
    397 C           -0.3761    -6.0426    -6.5494 C       5      r5     0.0012
    398 C            0.2236    -8.4699    -6.2313 C       5      r5    -0.0009
    399 C            0.9681    -6.1685    -6.6672 C       6      r6     0.0009
    400 C            1.3694    -7.5586    -6.3841 C       6      r6    -0.0014
    401 C            2.2178    -5.0951    -6.8553 C       6      r6     0.0010
    402 C            2.5795    -7.6111    -5.5528 C       6      r6     0.0000
    403 C            2.8188    -6.3605    -4.7723 C       6      r6     0.0029
    404 C            3.0873    -5.2008    -5.5622 C       6      r6     0.0010
    405 C            2.7789    -5.6859    -8.1859 C       5      r5     0.0009
    406 C            3.3644    -6.9992    -8.3440 C       6      r6    -0.0010
    407 C            3.8216    -8.3940    -5.5800 C       7      r7    -0.0014
    408 C            4.2194    -4.6074    -4.9548 C       5      r5    -0.0008
    409 C            4.6517    -7.5260    -7.7547 C       6      r6    -0.0007
    410 C            4.9967    -8.0542    -6.4769 C       7      r7     0.0006
    411 C            6.3751    -8.5702    -6.2402 C       7      r7     0.0012
    412 C            7.4267    -5.2156    -7.2994 C       6      r6     0.0014
    413 C            7.4165    -6.7558    -7.6778 C       6      r6     0.0003
    414 C            7.5325    -7.7175    -6.5890 C       6      r6    -0.0001
    415 C            7.6662    -4.7794    -5.9338 C       6      r6    -0.0007
    416 C            7.5962    -5.9311    -5.0171 C       6      r6    -0.0003
    417 C            8.4963    -7.0493    -5.5802 C       6      r6     0.0005
    418 C            8.7930    -8.2041    -4.5401 C       6      r6    -0.0034
    419 C            9.8719    -6.2859    -6.0354 C       5      r5    -0.0023
    420 C           10.4361    -5.1204    -5.4751 C       6      r6    -0.0018
    421 C           10.8645    -6.9167    -6.8029 C       5      r5    -0.0006
    422 C           10.9624    -8.2080    -7.5705 C       7      r7    -0.0001
    423 C           11.8991    -5.0776    -5.8792 C       6      r6    -0.0008
    424 C           12.1941    -6.2118    -6.7011 C       5      r5    -0.0013
    425 C           12.9514    -4.5124    -5.0411 C       6      r6    -0.0018
    426 C           13.4508    -6.8717    -6.9179 C       5      r5    -0.0071
    427 C           13.7099    -8.1544    -7.6102 C       5      r5     0.0298
    428 C          -13.8546    -0.4734    -6.1075 C       6      r6     0.0012
    429 C          -13.6291    -4.0686    -5.6752 C       7      r7    -0.0024
    430 C          -13.2133    -2.6505    -5.6829 C       5      r5    -0.0002
    431 C          -12.5529    -0.4285    -5.5113 C       6      r6    -0.0014
    432 C          -12.0531    -1.8309    -5.3396 C       5      r5    -0.0015
    433 C          -11.9564    -4.2273    -7.5791 C       5      r5     0.0004
    434 C          -10.8154    -2.2910    -4.6929 C       7      r7    -0.0010
    435 C          -10.7825    -3.5482    -4.1407 C       7      r7     0.0006
    436 C           -9.4189    -1.5888    -4.7472 C       6      r6    -0.0006
    437 C           -8.6205    -1.0153    -5.8440 C       6      r6     0.0018
    438 C           -7.1757    -0.7354    -6.0957 C       6      r6     0.0001
    439 C           -6.3833    -1.1310    -4.9751 C       6      r6    -0.0000
    440 C           -6.3594    -0.1674    -7.2580 C       6      r6    -0.0001
    441 C           -5.0374    -1.7098    -5.1783 C       6      r6     0.0000
    442 C           -5.0974    -0.9362    -7.5806 C       6      r6    -0.0001
    443 C           -4.5653    -1.8306    -6.5774 C       6      r6    -0.0006
    444 C           -3.4057    -2.7728    -6.7850 C       6      r6    -0.0002
    445 C           -3.0674    -3.6046    -7.9239 C       6      r6     0.0004
    446 C           -2.7449    -2.2314    -4.4323 C       6      r6    -0.0001
    447 C           -2.4662    -2.9066    -5.7016 C       6      r6    -0.0004
    448 C           -1.4222    -3.9014    -5.7175 C       6      r6     0.0001
    449 C           -1.4198    -0.4219    -7.7625 C       6      r6    -0.0003
    450 C           -0.9292    -0.0684    -5.2963 C       6      r6     0.0008
    451 C           -0.3472    -1.3430    -8.1082 C       6      r6    -0.0006
    452 C           -0.3947    -3.9375    -4.6658 C       6      r6     0.0003
    453 C            0.3942    -1.5624    -6.8881 C       6      r6    -0.0003
    454 C            0.3202    -0.5412    -5.8210 C       6      r6     0.0001
    455 C            0.8176    -3.3547    -5.1559 C       6      r6    -0.0002
    456 C            0.9555    -2.8989    -6.5827 C       7      r7    -0.0003
    457 C            1.7389    -3.7547    -7.3977 C       5      r5     0.0006
    458 C            2.5653    -0.3224    -7.9096 C       6      r6     0.0004
    459 C            2.5419    -0.5859    -6.4633 C       6      r6     0.0002
    460 C            2.9775    -2.1002    -4.4362 C       6      r6    -0.0002
    461 C            3.2915    -1.6129    -5.8557 C       6      r6     0.0002
    462 C            4.3000    -2.1889    -6.7998 C       6      r6    -0.0004
    463 C            4.5243    -1.7842    -8.1475 C       6      r6    -0.0005
    464 C            5.1892    -3.5954    -5.3775 C       7      r7    -0.0006
    465 C            5.2509    -3.2247    -6.8164 C       5      r5    -0.0000
    466 C            5.2549    -2.6752    -4.2463 C       7      r7    -0.0016
    467 C            6.1319    -3.1854    -7.9893 C       5      r5     0.0000
    468 C            6.2077    -1.5243    -4.3770 C       7      r7     0.0003
    469 C            7.1259    -1.1172    -5.4756 C       7      r7     0.0019
    470 C            7.3153    -4.0852    -8.1914 C       0      r0     0.0006
    471 C            7.9401    -2.0951    -6.1185 C       7      r7     0.0029
    472 C            8.0911    -3.4064    -5.4715 C       0      r0    -0.0011
    473 C            9.0246    -1.5541    -7.0169 C       6      r6     0.0027
    474 C            8.8891    -3.3073    -4.2606 C       6      r6     0.0049
    475 C            9.2923    -2.3585    -8.2075 C       6      r6    -0.0011
    476 C            9.7029    -0.2790    -7.1117 C       6      r6     0.0035
    477 C           10.0791    -4.1456    -4.3995 C       6      r6     0.0033
    478 C           11.1520    -0.4217    -7.4024 C       6      r6     0.0020
    479 C           11.7058    -1.6216    -7.9976 C       6      r6     0.0009
    480 C           13.1057    -2.0941    -7.7421 C       7      r7     0.0005
    481 C           13.6157    -1.8439    -6.3522 C       5      r5     0.0029
    482 C          -13.9013     3.6792    -4.4626 C       6      r6    -0.0013
    483 C          -13.4963     1.4407    -7.6582 C       6      r6    -0.0016
    484 C          -12.0654     1.2865    -7.2160 C       6      r6    -0.0003
    485 C          -11.8828     0.8657    -5.8141 C       6      r6    -0.0006
    486 C          -11.5349     1.8905    -4.9255 C       5      r5    -0.0003
    487 C          -10.8118     1.3660    -7.8784 C       7      r7    -0.0000
    488 C          -10.5995     3.0576    -4.9643 C       5      r5     0.0013
    489 C           -9.8259     3.2495    -6.3617 C       5      r5     0.0018
    490 C           -9.7074     2.4046    -7.5014 C       5      r5     0.0004
    491 C           -8.8881     4.2932    -6.5429 C       6      r6    -0.0005
    492 C           -8.5171     2.6144    -8.2685 C       5      r5    -0.0001
    493 C           -7.8552     3.8849    -7.5838 C       6      r6    -0.0017
    494 C           -6.6183     3.4656    -6.6748 C       6      r6    -0.0005
    495 C           -6.3992     4.0240    -5.4300 C       6      r6    -0.0005
    496 C           -5.9604     1.1391    -7.0776 C       0      r0     0.0021
    497 C           -5.5426     2.4633    -6.8363 C       5      r5    -0.0002
    498 C           -5.0257     3.6491    -4.6804 C       6      r6    -0.0008
    499 C           -4.5107     2.7440    -5.7703 C       5      r5    -0.0003
    500 C           -3.2995     2.0118    -5.7191 C       0      r0     0.0006
    501 C           -3.0596     3.7594    -8.4232 C       6      r6    -0.0006
    502 C           -3.0885     1.1388    -8.1792 C       5      r5     0.0010
    503 C           -2.9583     0.9087    -6.6858 C       5      r5     0.0010
    504 C           -2.0714     2.8383    -5.4194 C       7      r7    -0.0000
    505 C           -1.6972     4.0102    -6.2179 C       6      r6    -0.0005
    506 C           -1.8244     0.0500    -6.4184 C       6      r6     0.0001
    507 C           -1.4423     2.6796    -4.1204 C       5      r5    -0.0008
    508 C            0.7366     3.8079    -4.2938 C       6      r6    -0.0001
    509 C            0.9067     1.6162    -8.2713 C       6      r6     0.0002
    510 C            1.5572     2.2214    -7.0922 C       6      r6     0.0011
    511 C            1.6505     0.1790    -5.4534 C       6      r6     0.0019
    512 C            2.0469     4.1653    -4.8569 C       6      r6     0.0007
    513 C            2.0777     1.6311    -5.9205 C       6      r6     0.0015
    514 C            2.4217     3.4235    -7.4298 C       6      r6     0.0001
    515 C            3.4421     1.9449    -5.4680 C       6      r6    -0.0007
    516 C            3.8997     3.1825    -7.6747 C       6      r6     0.0023
    517 C            4.2893     2.3637    -6.6159 C       6      r6    -0.0015
    518 C            5.5172     1.6825    -6.6210 C       6      r6    -0.0016
    519 C            5.8791     0.9056    -5.4558 C       6      r6    -0.0001
    520 C            6.2050     3.0809    -8.3376 C       6      r6     0.0057
    521 C            6.6262     1.9638    -7.4976 C       6      r6    -0.0026
    522 C            7.0884     0.2585    -5.9258 C       5      r5    -0.0005
    523 C            7.6350     1.1005    -6.9940 C       5      r5    -0.0015
    524 C            8.9425     4.3137    -7.1674 C       6      r6     0.0051
    525 C            9.1040     1.0354    -7.1619 C       6      r6    -0.0011
    526 C            9.7854     3.4507    -6.5199 C       6      r6    -0.0024
    527 C           10.0432     2.1548    -7.1861 C       6      r6    -0.0017
    528 C           10.3004     3.8933    -5.0358 C       6      r6     0.0018
    529 C           11.4821     2.0389    -7.5490 C       6      r6    -0.0004
    530 C           11.5600     3.3470    -4.7603 C       6      r6    -0.0069
    531 C           12.0440     0.7378    -7.2252 C       6      r6     0.0009
    532 C           12.3934     3.0981    -7.9692 C       6      r6    -0.0016
    533 C           12.6693     4.2158    -4.8188 C       6      r6    -0.0003
    534 C           13.4577     0.5919    -7.0024 C       6      r6    -0.0005
    535 C           13.7549     2.5783    -8.2819 C       6      r6    -0.0029
    536 C          -13.7060     7.2585    -7.2495 C       5      r5    -0.0029
    537 C          -12.5968     8.0592    -7.3952 C       0      r0    -0.0069
    538 C          -11.3264     4.4300    -4.5503 C       7      r7     0.0016
    539 C          -10.9494     8.5686    -4.6207 C       7      r7    -0.0023
    540 C           -9.5162     8.4949    -4.7308 C       7      r7    -0.0024
    541 C           -9.2727     6.0913    -4.5895 C       7      r7    -0.0016
    542 C           -8.7368     7.4034    -4.0986 C       7      r7    -0.0009
    543 C           -8.4762     5.1715    -5.4075 C       6      r6    -0.0003
    544 C           -7.3624     4.6317    -4.5527 C       6      r6    -0.0007
    545 C           -7.4646     6.3465    -8.2205 C       6      r6    -0.0002
    546 C           -6.9329     7.6774    -6.2049 C       6      r6     0.0066
    547 C           -6.5703     6.5362    -7.0350 C       6      r6    -0.0004
    548 C           -6.4120     7.8342    -4.8063 C       7      r7    -0.0008
    549 C           -5.3172     5.7954    -6.9585 C       7      r7     0.0017
    550 C           -4.9877     8.2445    -4.7652 C       7      r7     0.0249
    551 C           -4.6111     5.8131    -8.2620 C       7      r7    -0.0010
    552 C           -4.5042     5.9259    -5.6901 C       7      r7    -0.0001
    553 C           -4.3158     5.0156    -4.6388 C       6      r6    -0.0007
    554 C           -4.0591     7.3616    -5.5426 C       7      r7    -0.0035
    555 C           -3.5260     8.1226    -7.8661 C       6      r6    -0.0476
    556 C           -3.0370     7.9326    -6.4563 C       7      r7     0.0524
    557 C           -1.8525     4.1589    -7.6544 C       6      r6     0.0003
    558 C           -1.6493     7.6470    -6.0167 C       7      r7    -0.0047
    559 C           -1.1001     5.1560    -5.5150 C       6      r6     0.0004
    560 C           -0.9386     6.3791    -6.3778 C       6      r6     0.0006
    561 C           -0.8166     8.3845    -5.0809 C       7      r7     0.0056
    562 C           -0.4329     6.2353    -7.6880 C       6      r6    -0.0015
    563 C           -0.0417     5.0732    -4.5067 C       6      r6    -0.0009
    564 C            0.4273     7.6120    -4.8784 C       7      r7    -0.0014
    565 C            1.4000     7.8664    -5.8934 C       7      r7    -0.0012
    566 C            2.3585     4.3944    -6.2493 C       5      r5     0.0009
    567 C            2.4060     5.7291    -6.9044 C       5      r5    -0.0015
    568 C            2.6135     5.5897    -8.3483 C       6      r6    -0.0021
    569 C            2.5238     6.9145    -6.0354 C       7      r7    -0.0013
    570 C            3.7668     6.9385    -5.1775 C       7      r7    -0.0008
    571 C            4.0829     5.8919    -4.2891 C       5      r5    -0.0000
    572 C            4.5851     8.1817    -5.3022 C       7      r7    -0.0001
    573 C            5.8372     7.5748    -8.2138 C       0      r0     0.0003
    574 C            6.0134     8.1169    -5.6011 C       7      r7     0.0001
    575 C            6.4990     7.3801    -6.8016 C       0      r0     0.0003
    576 C            7.5253     6.5386    -6.6942 C       0      r0     0.0103
    577 C            8.5705     5.6931    -6.4788 C       6      r6     0.0080
    578 C            9.0052     8.3660    -4.8366 C       0      r0    -0.0025
    579 C            9.7381     6.2624    -5.7506 C       6      r6     0.0027
    580 C            9.8372     8.3136    -7.2230 C       7      r7     0.0024
    581 C            9.8590     7.8062    -5.8185 C       0      r0     0.0003
    582 C           10.6673     5.4097    -5.1359 C       6      r6     0.0005
    583 C           10.7425     7.5414    -8.0646 C       7      r7     0.0073
    584 C           11.9200     6.8935    -7.3970 C       5      r5    -0.0002
    585 C           12.1448     8.0487    -4.3748 C       5      r5    -0.0016
    586 C           12.0465     5.5249    -4.6936 C       5      r5     0.0005
    587 C           12.5447     8.6388    -5.6795 C       5      r5    -0.0032
    588 C           12.6156     5.6400    -7.7046 C       5      r5     0.0026
    589 C           12.7103     6.7123    -4.1700 C       7      r7    -0.0016
    590 C           12.8600     7.8389    -6.8620 C       5      r5    -0.0049
    591 C          -13.8686     5.9196    -7.9562 C       5      r5    -0.0018
    592 C          -13.0689    11.1149    -8.1413 C       6      r6     0.0108
    593 C          -12.5381    11.2847    -6.7705 C       6      r6     0.0250
    594 C          -12.5725    12.4610    -5.8296 C       6      r6    -0.0640
    595 C          -12.1655    12.1364    -4.4947 C       6      r6     0.2243
    596 C          -11.9081    10.0212    -6.4307 C       6      r6    -0.0132
    597 C          -11.5870     8.9023    -7.4591 C       7      r7    -0.0015
    598 C          -11.8899     9.6986    -5.0313 C       6      r6     0.0040
    599 C           -9.2280    11.1754    -8.0606 C       6      r6    -0.0007
    600 C           -9.2939     9.7341    -8.2888 C       6      r6    -0.0021
    601 C           -8.9969    11.7112    -6.6844 C       6      r6     0.0015
    602 C           -9.0218    10.8641    -5.5188 C       6      r6    -0.0015
    603 C           -8.7531     9.4288    -5.5886 C       7      r7     0.0008
    604 C           -8.3844     8.6852    -7.9894 C       6      r6    -0.0023
    605 C           -7.9384     8.6981    -6.5692 C       6      r6     0.0021
    606 C           -4.6239    12.6862    -6.5239 C       0      r0    -0.0121
    607 C           -4.4675    11.8952    -7.5915 C       6      r6     0.1978
    608 C           -3.9766     9.4457    -8.1275 C       6      r6     0.2429
    609 O           -3.8853    10.4765    -7.0115 O       6      r6    -0.4761
    610 C           -0.8301     9.8340    -4.6929 C       7      r7     0.0119
    611 C           -0.1075    12.7852    -4.1264 C       0      r0    -0.0014
    612 C           -0.0067    12.1059    -5.4424 C       6      r6     0.0031
    613 C            0.0725    10.6714    -5.4553 C       6      r6     0.0027
    614 C            0.1986     8.7687    -8.0349 C       6      r6     0.0024
    615 C            0.4566    12.9039    -6.6215 C       6      r6    -0.0038
    616 C            1.0727     8.9354    -6.9188 C       7      r7     0.0001
    617 C            1.4550    10.2013    -6.1449 C       6      r6    -0.0023
    618 C            1.4641    12.4619    -7.5767 C       6      r6    -0.0006
    619 C            2.1542    11.3089    -7.0719 C       6      r6     0.0036
    620 C            2.4475     9.7947    -5.0226 C       6      r6    -0.0019
    621 C            3.5534    11.3969    -7.1175 C       6      r6     0.0070
    622 C            3.8247     9.4501    -5.5759 C       6      r6    -0.0006
    623 C            4.3846    10.5412    -6.3794 C       6      r6    -0.0027
    624 C            4.5102    12.4216    -7.7370 C       6      r6     0.0038
    625 C            5.7903    10.9677    -6.5270 C       6      r6     0.0027
    626 C            5.8297    12.2113    -7.2224 C       6      r6    -0.0001
    627 C            6.9640     9.1985    -5.2627 C       7      r7    -0.0002
    628 C            7.1612    12.8516    -7.7597 C       6      r6     0.0015
    629 C            7.0247    10.2267    -6.2958 C       6      r6    -0.0009
    630 C            8.0593    11.6663    -8.1634 C       6      r6    -0.0009
    631 C            8.0808    10.3842    -7.3787 C       6      r6    -0.0038
    632 C            8.7005     9.1077    -7.7949 C       7      r7    -0.0021
    633 C           10.9015    12.3481    -4.4443 C       6      r6     0.0030
    634 C           11.3848    12.3204    -5.7027 C       6      r6     0.0020
    635 C           12.1045     9.9936    -5.3963 C       6      r6    -0.0002
    636 C           11.9106    11.1305    -6.2518 C       6      r6    -0.0028
    637 C           12.3495    11.5701    -7.5628 C       6      r6     0.0086
    638 O          -13.7491   -11.6639    -0.1135 O       6      r6    -0.5088
    639 C          -13.4242   -10.3512    -0.8821 C       6      r6     0.2554
    640 C          -12.5261   -12.4024     0.0199 C       6      r6     0.2889
    641 C          -12.2454   -10.1594    -1.5482 C       6      r6    -0.0578
    642 C          -11.9545    -9.1083    -2.4720 C       6      r6     0.0142
    643 O          -11.9271   -12.7099    -3.5135 O       5      r5    -0.4644
    644 C          -11.2226   -12.0930    -0.5347 C       6      r6    -0.0506
    645 C          -11.0889   -11.0354    -1.5149 C       6      r6     0.0754
    646 C          -10.8434    -9.5779    -3.2855 C       6      r6     0.0067
    647 C          -10.1889   -10.5981    -2.4469 C       6      r6     0.0074
    648 C           -8.8537   -11.0936    -2.6944 C       6      r6     0.0011
    649 C           -8.5866   -12.5907    -2.5352 C       6      r6     0.0121
    650 C           -8.4436    -8.8865    -4.1901 C       6      r6    -0.0019
    651 C           -8.2491   -10.3490    -3.7809 C       6      r6    -0.0044
    652 C           -5.7946   -12.8646    -1.5123 C       6      r6    -0.0001
    653 C           -5.5049   -12.3505    -2.9080 C       6      r6    -0.0042
    654 C           -5.6802    -8.9520    -1.3783 C       6      r6    -0.0044
    655 C           -5.0007   -10.9599    -3.0810 C       6      r6    -0.0027
    656 C           -5.0252   -10.1835    -1.8378 C       6      r6     0.0026
    657 C           -4.6901   -12.4553    -0.6539 C       6      r6    -0.0012
    658 C           -4.4307   -11.0052    -0.7467 C       6      r6     0.0019
    659 C           -3.7919   -11.0357    -3.8791 C       6      r6    -0.0038
    660 C           -2.8881    -9.8668    -3.8065 C       6      r6    -0.0015
    661 C           -2.2740    -9.5921    -2.4831 C       6      r6    -0.0005
    662 C           -0.9859   -10.3284    -2.4533 C       5      r5     0.0003
    663 C           -0.5472   -10.1559    -3.8443 C       5      r5     0.0011
    664 C           -0.3993   -10.7375    -1.1664 C       7      r7     0.0006
    665 C            0.3791   -12.0094    -1.1062 C       7      r7     0.0003
    666 C            1.2944   -12.8438    -3.7404 C       5      r5    -0.0021
    667 C            1.7918   -11.2859    -3.8633 C       5      r5    -0.0023
    668 C            1.8909   -11.7926    -1.2207 C       6      r6     0.0021
    669 C            2.3071   -10.9908    -2.3609 C       6      r6     0.0010
    670 C            2.7582   -12.1464    -0.0814 C       6      r6     0.0007
    671 C            3.4055   -10.1340    -2.0797 C       6      r6     0.0007
    672 C            3.5646    -8.9292    -3.0510 C       7      r7     0.0022
    673 C            4.1421   -11.7472    -0.1968 C       6      r6     0.0011
    674 C            4.2969   -10.4387    -0.8616 C       6      r6     0.0001
    675 C            5.3652    -9.5798    -0.4220 C       6      r6    -0.0004
    676 C            8.8000    -8.8734    -2.2866 C       6      r6    -0.0030
    677 C            9.7180    -9.6755    -3.1283 C       5      r5    -0.0015
    678 C           10.6843   -11.8214    -0.0694 C       6      r6     0.0079
    679 C           10.5278   -10.6629    -2.3843 C       6      r6     0.0023
    680 C           10.6720   -10.6128    -0.9490 C       6      r6     0.0122
    681 C           10.6799   -12.0001    -2.8484 C       6      r6     0.0103
    682 C           11.1354    -9.3403    -0.4197 C       7      r7    -0.0027
    683 C           11.5208   -12.8063    -0.7287 C       6      r6     0.0495
    684 C           13.6515    -9.2682    -0.8551 C       6      r6    -0.0503
    685 C          -13.7560    -8.0224    -1.5923 C       6      r6     0.0030
    686 C          -13.4588    -5.7263    -2.0998 C       5      r5    -0.0022
    687 H          -12.9688    -6.4760    -4.2223 H       0      r0     0.0215
    688 C          -12.6771    -7.8990    -2.5337 C       6      r6    -0.0039
    689 C          -12.5253    -6.5290    -3.1977 C       5      r5    -0.0203
    690 C          -12.4170    -4.9362    -1.3595 C       6      r6    -0.0013
    691 C          -11.2295    -5.3269    -0.6755 C       6      r6    -0.0030
    692 C          -11.0301    -6.0568    -3.3680 C       6      r6    -0.0028
    693 C          -10.8039    -6.7212    -0.3185 C       5      r5    -0.0008
    694 C          -10.4332    -4.7216    -3.4693 C       6      r6    -0.0027
    695 C          -10.0583    -8.3802    -4.1041 C       6      r6    -0.0049
    696 C           -9.9663    -7.0506    -3.4009 C       6      r6    -0.0029
    697 C           -9.0504    -4.3839    -2.8452 C       6      r6     0.0017
    698 C           -8.5657    -6.7566    -2.9180 C       6      r6    -0.0021
    699 C           -8.1323    -5.4062    -2.4545 C       6      r6     0.0002
    700 C           -7.7197    -7.7910    -3.3844 C       5      r5    -0.0020
    701 C           -6.8178    -4.8501    -2.0975 C       6      r6     0.0008
    702 C           -6.2541    -7.6448    -3.3888 C       0      r0    -0.0012
    703 C           -5.3527    -5.2265    -2.1117 C       6      r6    -0.0004
    704 C           -5.4156    -7.7031    -2.1357 C       0      r0     0.0025
    705 C           -4.8515    -6.4791    -1.5430 C       0      r0     0.0002
    706 C           -4.3966    -4.3734    -2.8167 C       6      r6    -0.0008
    707 C           -3.6990    -6.4764    -0.5784 C       0      r0     0.0005
    708 C           -3.1787    -5.0736    -3.4000 C       0      r0     0.0005
    709 C           -3.2031    -6.4168    -3.8416 C       0      r0     0.0007
    710 C           -2.2661    -6.2897    -0.7680 C       0      r0    -0.0026
    711 C           -1.9877    -4.5965    -2.6820 C       5      r5     0.0007
    712 C           -2.1195    -7.3843    -3.6327 C       6      r6     0.0007
    713 C           -2.0499    -8.1789    -2.3398 C       6      r6     0.0011
    714 C           -1.5881    -5.1228    -1.4495 C       5      r5    -0.0004
    715 C           -1.6415    -7.6633    -0.9961 C       7      r7    -0.0001
    716 C           -1.2683    -8.7663    -0.2630 C       7      r7    -0.0035
    717 C            3.5154    -6.4598    -3.4866 C       5      r5     0.0006
    718 C            3.4875    -7.5828    -2.5413 C       7      r7     0.0002
    719 C            3.9808    -6.4819    -0.1662 C       6      r6    -0.0002
    720 C            4.0512    -7.5551    -1.1761 C       7      r7    -0.0010
    721 C            4.4808    -5.4126    -3.7445 C       5      r5     0.0003
    722 C            5.3021    -8.2970    -1.0310 C       7      r7     0.0017
    723 C            5.8046    -5.3825    -3.0979 C       5      r5    -0.0008
    724 C            6.0414    -5.7535    -1.7233 C       6      r6    -0.0019
    725 C            6.4909    -7.1972    -1.4946 C       6      r6    -0.0011
    726 C            6.7393    -4.5411    -1.2505 C       6      r6    -0.0018
    727 C            6.9490    -6.1640    -3.7572 C       6      r6    -0.0006
    728 C            6.9790    -7.3475    -2.9204 C       6      r6     0.0017
    729 C            7.7895    -7.3434    -0.4115 C       6      r6    -0.0024
    730 C            7.9652    -8.3340    -3.3717 C       6      r6     0.0005
    731 C            8.1382    -4.8296    -0.8060 C       6      r6     0.0003
    732 C            8.4201    -5.9642    -0.0084 C       6      r6    -0.0025
    733 C            8.8738    -8.1577    -1.0434 C       6      r6    -0.0017
    734 C           10.1041    -8.2698    -0.2392 C       7      r7    -0.0043
    735 C           10.3600    -4.5346    -0.0499 C       5      r5     0.0106
    736 C           11.8084    -4.6674    -0.2265 C       7      r7     0.0087
    737 C           13.3989    -4.3721    -2.4058 C       6      r6    -0.0037
    738 C           13.7859    -6.7164    -1.1478 C       5      r5    -0.0048
    739 C          -13.8715    -1.9307    -2.3459 C       6      r6     0.0140
    740 C          -13.5548    -3.2544    -2.4025 C       6      r6     0.0023
    741 C          -12.9199    -0.8513    -2.3285 C       6      r6    -0.0056
    742 C          -12.4248    -3.5632    -1.6836 C       6      r6     0.0043
    743 C          -11.6010    -1.1648    -1.8204 C       6      r6     0.0020
    744 C          -11.4600    -2.5169    -1.4257 C       6      r6     0.0026
    745 C          -10.6716    -0.1837    -1.3673 C       6      r6    -0.0015
    746 C          -10.3486    -2.9761    -0.6336 C       6      r6    -0.0006
    747 C          -10.2010    -4.4144    -0.4657 C       6      r6    -0.0002
    748 C           -9.6302    -0.6328    -0.5952 C       6      r6    -0.0000
    749 C           -9.4662    -1.9377    -0.2895 C       6      r6    -0.0008
    750 C           -8.4996    -1.9235    -3.6729 C       6      r6     0.0007
    751 C           -8.3712    -3.1269    -2.7809 C       5      r5     0.0015
    752 C           -7.2174    -1.1352    -3.6997 C       6      r6     0.0009
    753 C           -7.0713    -3.4289    -2.2252 C       6      r6    -0.0009
    754 C           -6.8313    -0.4783    -2.4267 C       6      r6     0.0007
    755 C           -5.9036    -2.5216    -2.1998 C       6      r6    -0.0008
    756 C           -5.7111    -1.1556    -1.7585 C       6      r6     0.0005
    757 C           -4.7129    -2.9926    -2.9847 C       6      r6     0.0003
    758 C           -4.3713    -0.5262    -1.7482 C       6      r6     0.0003
    759 C           -4.1596    -2.2067    -4.0983 C       6      r6     0.0002
    760 C           -3.1079    -0.8800    -1.0328 C       0      r0     0.0008
    761 C           -1.7007    -2.0990    -3.3903 C       6      r6     0.0010
    762 C           -1.7578    -0.5095    -1.4175 C       0      r0    -0.0004
    763 C           -1.3227    -0.8571    -2.8201 C       0      r0    -0.0002
    764 C           -0.9569    -3.5320    -3.2892 C       6      r6     0.0009
    765 C           -0.2581    -4.3845    -1.1014 C       5      r5     0.0002
    766 C            0.1644    -3.6076    -2.2758 C       6      r6     0.0002
    767 C            1.3897    -2.9976    -2.7009 C       6      r6     0.0012
    768 C            1.7462    -2.8312    -4.1020 C       6      r6     0.0010
    769 C            1.6364    -2.1323    -0.4868 C       6      r6    -0.0017
    770 C            2.3772    -2.4760    -1.6873 C       6      r6    -0.0007
    771 C            3.8268    -2.5236    -2.0401 C       6      r6    -0.0011
    772 C            3.9927    -2.4721    -3.4982 C       6      r6     0.0010
    773 C            4.5948    -3.1984    -0.9931 C       7      r7    -0.0029
    774 C            6.0789    -3.2411    -0.9680 C       7      r7    -0.0019
    775 C            6.6304    -0.7971    -3.2014 C       7      r7    -0.0020
    776 C            7.7483    -1.5186    -2.5193 C       7      r7     0.0206
    777 C            7.9859    -1.0280    -1.1273 C       6      r6     0.0138
    778 C            8.5289    -2.6483    -2.9621 C       6      r6     0.0134
    779 C            9.3336    -4.0145    -0.9171 C       5      r5    -0.0039
    780 C            9.5288    -3.0562    -1.9616 C       6      r6     0.0243
    781 O           10.5729    -0.3083    -2.5855 O       7      r7    -0.5340
    782 C           10.8082    -2.9601    -2.4537 C       6      r6     0.0310
    783 C           11.1871    -3.8423    -3.4951 C       6      r6    -0.0063
    784 C           11.8784    -2.6903    -1.6868 C       6      r6     0.0609
    785 C           12.0405    -0.4294    -2.5430 C       6      r6     0.2871
    786 C           12.4782    -3.9457    -1.2247 C       6      r6     0.0004
    787 C           12.4962    -4.3875    -3.6744 C       6      r6    -0.0025
    788 C           12.6366    -1.6299    -2.1216 C       6      r6    -0.0413
    789 C          -13.5209     0.4291    -2.6579 C       6      r6     0.0110
    790 C          -13.4773     2.4939    -0.0292 C       6      r6    -0.0097
    791 C          -13.0057     1.5155    -3.2274 C       5      r5     0.0012
    792 C          -12.6170     3.4437    -0.5727 C       6      r6     0.0013
    793 C          -11.7049     1.5600    -3.6735 C       5      r5    -0.0029
    794 C          -11.3382     3.0063    -0.2225 C       5      r5    -0.0020
    795 C          -10.5663     1.7624    -2.9055 C       6      r6    -0.0020
    796 C          -10.1923     3.8350    -0.6467 C       6      r6    -0.0001
    797 C          -10.1160     0.9879    -1.8133 C       6      r6    -0.0021
    798 C           -9.8039     2.6691    -3.6846 C       6      r6     0.0003
    799 C           -8.9394     3.1271    -0.7350 C       6      r6     0.0006
    800 C           -8.8777     1.6202    -1.1092 C       6      r6    -0.0003
    801 C           -8.4125     2.7860    -3.2791 C       6      r6     0.0022
    802 C           -7.9770     1.7408    -2.3141 C       6      r6     0.0011
    803 C           -7.9304     4.1255    -0.5625 C       6      r6     0.0018
    804 C           -7.5230     3.9390    -3.2630 C       6      r6    -0.0001
    805 C           -6.7356     1.0263    -2.4070 C       6      r6     0.0008
    806 C           -6.5457     3.8744    -1.0057 C       6      r6     0.0004
    807 C           -6.3219     3.7543    -2.4068 C       6      r6    -0.0011
    808 C           -5.4307     1.6214    -2.8213 C       6      r6     0.0010
    809 C           -5.1654     3.0514    -3.0868 C       6      r6    -0.0001
    810 C           -4.3257     0.7047    -2.5446 C       6      r6     0.0004
    811 C           -4.2454     3.9036     0.1009 C       6      r6    -0.0005
    812 C           -3.7021     3.0326    -2.2876 C       6      r6    -0.0006
    813 C           -3.6622     2.8669    -0.7482 C       7      r7    -0.0002
    814 C           -3.1788     1.6539    -2.6931 C       5      r5     0.0000
    815 C           -2.9140     4.3586    -2.7224 C       6      r6    -0.0016
    816 C           -3.0096     1.8423     0.0164 C       0      r0    -0.0004
    817 C           -2.0143     1.5096    -3.4681 C       5      r5     0.0003
    818 C           -1.5233     1.5988    -0.1285 C       6      r6     0.0011
    819 C           -1.4961     4.0816    -0.7035 C       7      r7     0.0002
    820 C           -0.8578     0.3577    -0.5515 C       6      r6    -0.0007
    821 C           -0.9623     0.3384    -3.7596 C       6      r6    -0.0002
    822 C           -0.8146     2.7981    -0.4906 C       6      r6     0.0039
    823 C            0.0469     2.5739    -4.0421 C       5      r5     0.0002
    824 C            0.3339     1.1917    -3.5926 C       6      r6    -0.0007
    825 C            0.6084     0.2029    -0.6907 C       6      r6     0.0004
    826 C            0.6462     2.7297    -0.8250 C       6      r6     0.0036
    827 C            1.2865     1.4687    -1.0902 C       6      r6    -0.0003
    828 C            1.4656     3.8802    -1.2044 C       5      r5     0.0040
    829 C            1.6081     0.6285    -3.8909 C       6      r6     0.0004
    830 C            2.4558     1.8407    -1.9775 C       5      r5    -0.0011
    831 C            2.6130     3.2799    -1.8737 C       5      r5     0.0011
    832 C            2.7756     1.1455    -3.2243 C       6      r6    -0.0010
    833 C            3.5415     4.0912    -2.6961 C       5      r5    -0.0003
    834 C            3.8915     1.5213    -4.1748 C       6      r6    -0.0011
    835 C            5.0659     1.8960    -0.1921 C       6      r6    -0.0007
    836 C            5.2715     0.9725    -4.1075 C       6      r6    -0.0009
    837 C            5.3650     3.3209    -0.6298 C       6      r6     0.0003
    838 C            6.0206     3.7057    -1.8470 C       0      r0    -0.0023
    839 C            6.2850     0.6473    -3.1005 C       7      r7    -0.0007
    840 C            7.2187     3.1806    -2.5476 C       7      r7    -0.0036
    841 C            7.2848     1.6925    -2.7265 C       7      r7     0.0076
    842 C            7.4778     1.2061    -0.1474 C       6      r6    -0.0090
    843 C            8.5434     3.8124    -2.8346 C       7      r7    -0.0043
    844 C            8.5609     0.2756    -0.9316 C       6      r6     0.0344
    845 C            8.4906     1.0505    -2.2491 C       7      r7    -0.0548
    846 C            9.3556     3.2224    -3.8747 C       5      r5     0.0071
    847 C            9.6783     0.8667    -2.9300 C       7      r7     0.2640
    848 C           10.1153     1.9929    -3.6232 C       5      r5    -0.0601
    849 C           10.1980     2.5206    -0.3998 C       6      r6    -0.0119
    850 C           10.9961     3.5629    -1.0241 C       6      r6     0.0055
    851 C           11.4938     2.1333    -4.1472 C       6      r6     0.0222
    852 C           12.3827     3.4376    -0.9189 C       6      r6     0.0011
    853 C           12.6557     1.7765    -3.5422 C       6      r6     0.0226
    854 C           12.9511     0.5406    -2.8955 C       6      r6    -0.0679
    855 C           13.0298     2.3192    -0.3538 C       6      r6     0.0028
    856 C           13.8892     2.4086    -3.7832 C       6      r6    -0.0047
    857 C          -13.8440     6.7845    -3.5653 C       7      r7    -0.0007
    858 C          -13.2977     4.5787    -0.9604 C       6      r6    -0.0010
    859 C          -13.2531     5.5017    -3.2630 C       7      r7     0.0003
    860 C          -13.0383     7.9319    -3.2191 C       7      r7     0.0004
    861 C          -12.6275     5.4635    -1.9382 C       7      r7    -0.0011
    862 C          -12.7141     4.5426    -4.3053 C       7      r7     0.0001
    863 C          -11.6270     7.7547    -3.6383 C       7      r7    -0.0021
    864 C          -11.2737     5.9179    -1.7851 C       7      r7     0.0006
    865 C          -10.9047     6.6021    -3.0459 C       7      r7     0.0008
    866 C          -10.5996     5.6434    -4.1643 C       7      r7     0.0016
    867 C          -10.3784     5.3009    -0.7361 C       6      r6     0.0014
    868 C          -10.3188     8.4861    -0.1688 C       5      r5    -0.0017
    869 C           -7.8553     8.5509    -1.1579 C       6      r6    -0.0020
    870 C           -7.3544     7.7360    -3.6355 C       7      r7     0.0001
    871 C           -5.5413     4.5622    -0.1133 C       6      r6    -0.0004
    872 C           -3.7993     8.4085    -1.5294 C       0      r0     0.0002
    873 C           -3.5610     5.4400    -3.4427 C       6      r6    -0.0016
    874 C           -3.4987     8.0546    -2.8436 C       0      r0    -0.0017
    875 C           -2.8950     6.6923    -3.0728 C       5      r5     0.0005
    876 C           -1.7628     4.7823    -2.0380 C       5      r5    -0.0025
    877 C           -1.8051     6.2850    -2.2655 C       5      r5    -0.0016
    878 C           -0.7643     7.0137    -1.4848 C       7      r7    -0.0028
    879 C           -0.7234     8.4261    -1.3807 C       0      r0    -0.0015
    880 C           -0.0155     5.9928    -0.6108 C       7      r7     0.0013
    881 C            0.6219     6.3321    -4.1732 C       6      r6    -0.0001
    882 C            1.1923     5.3488    -1.0833 C       7      r7     0.0029
    883 C            1.8393     6.0927    -3.3722 C       6      r6    -0.0009
    884 C            2.0145     8.4188    -0.3278 C       6      r6    -0.0004
    885 C            1.8577     6.3391    -1.9362 C       7      r7    -0.0012
    886 C            2.2582     7.7394    -1.5830 C       6      r6    -0.0010
    887 C            2.8591     4.9808    -3.7965 C       6      r6     0.0003
    888 C            3.2321     8.4494    -2.4348 C       6      r6    -0.0013
    889 C            4.5906     8.0227    -2.0351 C       7      r7     0.0006
    890 C            4.9272     4.4407    -2.6217 C       5      r5    -0.0019
    891 C            5.0794     5.7959    -3.2642 C       5      r5    -0.0018
    892 C            5.3906     6.8519    -2.2452 C       7      r7     0.0000
    893 C            6.6303     5.9807    -0.2096 C       7      r7     0.0012
    894 C            6.6722     6.6890    -1.5072 C       7      r7    -0.0012
    895 C            7.6292     8.6636    -2.6424 C       7      r7     0.0009
    896 C            7.9009     7.3695    -1.9834 C       7      r7     0.0007
    897 C            8.5550     4.3663    -0.3728 C       6      r6    -0.0011
    898 C            8.9874     4.9503    -1.7916 C       6      r6     0.0000
    899 C            9.1631     6.5669    -1.9925 C       5      r5     0.0005
    900 C           10.4396     7.0455    -1.8969 C       6      r6    -0.0007
    901 C           10.3735     4.7006    -1.5785 C       6      r6    -0.0007
    902 C           11.1870     5.8370    -1.6026 C       6      r6    -0.0005
    903 C           11.3595     8.3952    -1.8370 C       6      r6     0.0005
    904 C           12.4842     5.7364    -0.9441 C       6      r6    -0.0008
    905 C           12.7436     8.1071    -1.2876 C       6      r6     0.0006
    906 C           13.0852     6.9707    -0.4450 C       6      r6    -0.0021
    907 C           13.1943     4.5409    -1.0590 C       6      r6    -0.0004
    908 C          -13.3574     9.2538    -2.6305 C       6      r6    -0.0056
    909 C          -12.9234     8.7066    -0.3093 C       6      r6    -0.0002
    910 C          -12.3294    10.3122    -2.6355 C       6      r6     0.0422
    911 C          -12.1673    10.7208    -4.0731 C       6      r6    -0.0328
    912 C          -11.5322     9.0945    -0.6351 C       6      r6    -0.0009
    913 C          -11.2578     9.9827    -1.7362 C       6      r6     0.0026
    914 C          -10.2618   -12.9035     0.1265 C       5      r5     0.0117
    915 C           -9.8447     9.7956    -2.1203 C       6      r6     0.0023
    916 C           -9.2950     8.8324    -1.2203 C       6      r6    -0.0030
    917 C           -9.0460    11.4268    -4.1392 C       6      r6     0.0117
    918 C           -8.9027    10.4779    -3.0233 C       6      r6    -0.0000
    919 C           -8.8036    12.8422    -0.0463 C       6      r6     0.0028
    920 C           -8.5694    12.8040    -3.8957 C       6      r6     0.0085
    921 C           -8.1076    12.7740    -1.2997 C       6      r6    -0.0040
    922 C           -7.4528    10.0917    -2.7650 C       6      r6     0.0005
    923 C           -7.2194     8.6752    -2.4722 C       6      r6     0.0009
    924 C           -7.1986     8.9270     0.1320 C       5      r5    -0.0020
    925 C           -6.7175    12.0269    -1.2083 C       6      r6    -0.0019
    926 C           -6.4699    11.1108    -2.4260 C       6      r6    -0.0042
    927 C           -5.4501    11.3012    -3.4760 C       6      r6     0.0090
    928 C           -5.3351    12.6573    -3.9410 C       6      r6     0.0001
    929 C           -4.2500     8.9812    -3.7270 C       0      r0     0.0084
    930 C           -4.2412    10.4478    -3.5753 C       7      r7     0.0122
    931 C           -4.1348     8.6784    -0.4589 C       0      r0    -0.0026
    932 C           -2.9706    11.0759    -3.8882 C       6      r6     0.0268
    933 C           -2.6342    12.5299    -3.9657 C       6      r6     0.0043
    934 C           -1.7599    10.2890    -3.5640 C       6      r6    -0.0005
    935 C           -1.3102    12.7263    -3.3565 C       6      r6    -0.0002
    936 C           -1.2116    10.6846    -2.2777 C       6      r6    -0.0002
    937 C           -1.0748    12.0785    -2.0418 C       6      r6     0.0009
    938 C           -0.6823     9.7788    -1.2017 C       6      r6    -0.0003
    939 C           -0.1369    12.6047    -1.0133 C       6      r6     0.0015
    940 C            2.2720    12.1080    -3.8049 C       5      r5    -0.0020
    941 C            2.3012    10.5308    -3.7813 C       0      r0    -0.0007
    942 C            2.6629     9.7805    -0.1354 C       6      r6    -0.0006
    943 C            2.8806    10.5566    -1.3077 C       6      r6    -0.0001
    944 C            2.8737     9.8776    -2.6599 C       6      r6    -0.0004
    945 C            3.4406    12.9734    -3.9372 C       5      r5    -0.0009
    946 C            4.0534    11.4202    -1.0822 C       5      r5     0.0029
    947 C            4.6538    12.5139    -3.3000 C       5      r5     0.0023
    948 C            4.9144    11.5221    -2.2646 C       5      r5     0.0018
    949 C            5.4378     9.0103    -1.2907 C       7      r7    -0.0001
    950 C            5.9592    12.8347    -3.8803 C       6      r6     0.0007
    951 C            6.1914    10.8730    -2.5138 C       5      r5     0.0015
    952 C            6.6395     9.5243    -2.0868 C       7      r7     0.0006
    953 C            6.8283    11.8316    -3.4008 C       6      r6    -0.0018
    954 C            7.9718     8.8736    -4.1268 C       0      r0    -0.0010
    955 C            8.2125    12.3125    -3.2969 C       6      r6    -0.0021
    956 C            8.5325    11.8476    -0.9405 C       0      r0    -0.0018
    957 C            9.0339    11.8114    -2.1009 C       7      r7    -0.0039
    958 C           10.6539    11.6269    -2.2026 C       6      r6    -0.0019
    959 C           11.0210     9.5843    -0.7264 C       7      r7     0.0011
    960 C           11.0881   -12.9451    -2.0054 C       6      r6    -0.0010
    961 C           11.1132    11.3069    -3.5783 C       6      r6     0.0053
    962 C           11.3888    10.9085    -1.0328 C       5      r5    -0.0028
    963 C           11.6217     8.8447    -3.2760 C       5      r5    -0.0022
    964 C           11.5709    10.0794    -4.0345 C       6      r6    -0.0013
    965 C           11.9730    11.9184    -0.2475 C       5      r5     0.0178
    966 C          -13.9422     8.9400    -1.3553 C       6      r6     0.0063
    967 C          -10.4989    -9.0190     2.4936 C       6      r6     0.0032
    968 C          -10.2571   -10.3165     3.2417 C       0      r0     0.0142
    969 C           -9.6483   -11.4469     2.7811 C       0      r0     0.0182
    970 C           -8.9654   -12.6452     2.5181 C       0      r0     0.0299
    971 O           -6.7571    -9.4704     3.1521 O       6      r6    -0.5068
    972 C           -6.0722    -8.9051     0.0160 C       6      r6     0.0219
    973 C           -5.6585   -10.0377     2.3316 C       6      r6     0.2601
    974 C           -5.4417    -9.7847     0.9745 C       6      r6    -0.0519
    975 C           -4.5553   -10.7766     2.8767 C       6      r6    -0.0607
    976 C           -4.1883   -10.4902     0.5758 C       6      r6    -0.0023
    977 C           -3.7406   -11.2403     1.7127 C       6      r6     0.0007
    978 C           -3.2766   -12.5961     1.4262 C       6      r6    -0.0025
    979 C           -1.1970    -9.3413     3.9556 C       6      r6     0.0038
    980 C           -0.9495   -12.6942     2.5918 C       5      r5    -0.0059
    981 C           -0.7795    -9.9902     0.0737 C       7      r7    -0.0030
    982 C           -0.5111   -11.5609     1.9867 C       0      r0    -0.0031
    983 C           -0.0753   -10.4890     1.4191 C       0      r0    -0.0049
    984 C            0.7716    -9.4920     2.2935 C       7      r7    -0.0003
    985 C            2.1920    -9.2716     2.1431 C       7      r7     0.0033
    986 C            2.1329   -12.4629     3.6859 C       6      r6     0.0005
    987 C            2.0510   -12.5653     1.1690 C       6      r6    -0.0001
    988 C            2.5542   -11.8902     2.3989 C       6      r6    -0.0012
    989 C            2.9933   -10.4679     2.3184 C       7      r7    -0.0008
    990 C            4.3021   -10.2334     2.9685 C       7      r7     0.0007
    991 C            5.2776    -9.5634     2.1150 C       6      r6     0.0011
    992 C            5.2994   -12.4315     0.4881 C       6      r6     0.0004
    993 C            6.1608   -10.0597     0.9199 C       6      r6    -0.0006
    994 C            6.2616   -11.6247     1.0664 C       6      r6    -0.0014
    995 C            7.2645   -12.2302     1.9472 C       7      r7    -0.0013
    996 C            7.4254    -9.2862     1.3627 C       6      r6    -0.0004
    997 C            7.4145   -11.5471     3.2566 C       7      r7    -0.0016
    998 C            8.3202   -12.7074     0.9973 C       7      r7    -0.0010
    999 C            8.5875   -10.7024     3.2813 C       7      r7    -0.0007
   1000 C            8.5593    -9.7081     2.1849 C       7      r7     0.0001
   1001 C            9.7548   -12.3292     0.9502 C       7      r7    -0.0041
   1002 C            9.6883   -11.3888     3.9825 C       6      r6     0.0043
   1003 C            9.8733    -9.0238     2.1265 C       6      r6     0.0026
   1004 C           10.1351   -12.6153     3.3807 C       6      r6    -0.0013
   1005 C           10.5488   -12.8052     2.0752 C       5      r5     0.0130
   1006 C           12.3679    -8.7870     2.8026 C       5      r5     0.0070
   1007 C           12.4936    -9.1936     0.0671 C       7      r7     0.0420
   1008 C           12.8137    -8.7074     1.3947 C       5      r5     0.0032
   1009 C          -13.7944    -7.1988     2.9085 C       6      r6    -0.0013
   1010 C          -12.6963    -4.3034     4.0442 C       7      r7    -0.0007
   1011 C          -12.5120    -8.2880     1.1073 C       5      r5     0.0044
   1012 C          -12.2915    -7.2878     3.1937 C       6      r6    -0.0026
   1013 C          -11.8591    -8.4750     2.4537 C       6      r6    -0.0001
   1014 C          -11.7074    -7.5071     0.3991 C       0      r0    -0.0063
   1015 C          -11.4527    -4.8033     3.5794 C       6      r6     0.0003
   1016 C          -11.2720    -6.3006     3.4384 C       6      r6    -0.0022
   1017 C           -9.8835    -6.8462     3.4535 C       6      r6    -0.0040
   1018 C           -9.5722    -6.4506     0.4107 C       6      r6    -0.0061
   1019 C           -9.5536    -7.9203     2.4931 C       6      r6     0.0276
   1020 C           -9.1619    -5.1239     0.2195 C       6      r6     0.0015
   1021 C           -9.0425    -4.5255     4.1393 C       6      r6    -0.0030
   1022 C           -8.8832    -5.9552     4.0725 C       6      r6     0.0074
   1023 C           -8.8646    -7.4160     1.2474 C       6      r6     0.0069
   1024 C           -7.9880    -4.6280     0.8663 C       6      r6     0.0019
   1025 C           -7.4986    -6.9584     1.2679 C       6      r6     0.0173
   1026 C           -7.1620    -5.5668     1.5491 C       6      r6    -0.0017
   1027 C           -6.3021    -7.7367     0.8880 C       0      r0     0.0236
   1028 C           -6.0950    -5.0264     2.2300 C       6      r6     0.0026
   1029 C           -5.9530    -5.2644     3.5875 C       0      r0    -0.0041
   1030 C           -5.8137    -6.6542     3.9429 C       0      r0    -0.0020
   1031 C           -5.0460    -7.2268     1.5184 C       5      r5    -0.0014
   1032 C           -4.8556    -7.2186     2.9839 C       5      r5     0.0201
   1033 C           -4.0794    -6.3639     0.8651 C       5      r5    -0.0041
   1034 C           -3.5291    -6.5153     3.0637 C       5      r5    -0.0114
   1035 C           -3.3554    -5.6362     1.9189 C       5      r5    -0.0001
   1036 C           -2.3086    -6.9374     3.7471 C       6      r6    -0.0017
   1037 C           -1.1410    -6.3425     3.0979 C       6      r6    -0.0020
   1038 C           -0.9667    -5.1330     2.2147 C       5      r5    -0.0003
   1039 C           -0.1150    -7.2785     2.7406 C       6      r6     0.0213
   1040 C           -0.1524    -8.7105     3.0844 C       6      r6     0.0111
   1041 C           -0.0528    -5.3711     1.1589 C       5      r5    -0.0002
   1042 C            0.6312    -6.5600     1.6919 C       5      r5     0.0008
   1043 C            2.0263    -6.7938     1.4116 C       7      r7     0.0032
   1044 C            2.7724    -5.8648     0.4945 C       6      r6     0.0002
   1045 C            2.7247    -7.8310     2.1964 C       7      r7     0.0151
   1046 C            2.8074    -4.4747     0.2939 C       6      r6     0.0020
   1047 C            3.4702    -5.2445     3.9695 C       0      r0     0.0262
   1048 C            3.9872    -7.3863     2.6901 C       7      r7     0.0099
   1049 C            4.3228    -6.1071     3.4798 C       0      r0     0.0074
   1050 C            5.0984    -4.8760     0.9815 C       6      r6    -0.0003
   1051 C            5.0951    -8.1948     2.1694 C       6      r6    -0.0011
   1052 C            5.1902    -6.2398     0.6996 C       6      r6    -0.0012
   1053 C            5.8090    -5.8424     3.8197 C       7      r7    -0.0005
   1054 C            6.0019    -7.3039     1.3931 C       6      r6     0.0008
   1055 C            6.5993    -4.8787     3.0844 C       5      r5    -0.0007
   1056 C            7.2292    -7.8837     0.9552 C       6      r6    -0.0028
   1057 C            9.6824    -5.6753     0.5704 C       5      r5    -0.0027
   1058 C           10.1562    -4.8777     3.7610 C       5      r5    -0.0003
   1059 C            9.8925    -7.8999     1.1559 C       6      r6    -0.0024
   1060 C           10.2653    -6.2015     3.0560 C       6      r6    -0.0018
   1061 C           10.1662    -6.5410     1.6548 C       6      r6    -0.0011
   1062 C           10.5818    -7.4158     3.7884 C       6      r6    -0.0015
   1063 C           10.8871    -8.6951     3.1197 C       6      r6     0.0016
   1064 C           12.6344    -5.5237     0.7546 C       6      r6     0.0030
   1065 C           12.7390    -5.1226     2.1320 C       6      r6    -0.0012
   1066 C           13.2932    -8.2286     3.7618 C       5      r5    -0.0007
   1067 C           13.4584    -6.5881     0.3003 C       6      r6    -0.0043
   1068 C           13.6331    -5.7634     3.0131 C       6      r6    -0.0008
   1069 C           13.9124    -7.6663     1.3257 C       6      r6    -0.0018
   1070 C          -13.3611    -1.1219     2.5848 C       6      r6    -0.0641
   1071 C          -12.7014    -1.8054     3.6240 C       5      r5     0.0096
   1072 C          -11.2892    -1.5979     3.9635 C       6      r6    -0.0017
   1073 C          -10.2399    -3.9308     3.5752 C       6      r6     0.0009
   1074 C          -10.2402    -2.4764     3.4228 C       6      r6    -0.0004
   1075 C           -8.9610    -1.7193     3.3870 C       6      r6    -0.0013
   1076 C           -8.4215    -0.7400     2.4525 C       6      r6    -0.0005
   1077 C           -8.4203    -2.1133     0.4898 C       6      r6    -0.0010
   1078 C           -8.0361    -0.7811     0.9367 C       6      r6    -0.0003
   1079 C           -7.6642    -3.2173     0.8825 C       6      r6    -0.0005
   1080 C           -6.5412    -0.5441     0.9633 C       6      r6     0.0007
   1081 C           -6.3388    -2.9403     1.1348 C       6      r6     0.0014
   1082 C           -5.7357    -1.7297     0.8478 C       6      r6     0.0003
   1083 C           -5.4773    -3.9012     1.6509 C       6      r6    -0.0011
   1084 C           -4.3032    -2.0430     0.9341 C       5      r5     0.0012
   1085 C           -4.2062    -3.3143     1.6408 C       5      r5    -0.0006
   1086 C           -3.2120    -1.2026     0.4347 C       0      r0    -0.0000
   1087 C           -3.0800    -4.1778     1.9031 C       7      r7    -0.0022
   1088 C           -3.0788    -0.2213     1.5128 C       0      r0     0.0005
   1089 C           -2.8240    -0.5480     2.9320 C       6      r6     0.0010
   1090 C           -2.0856    -1.7412     3.3292 C       6      r6    -0.0013
   1091 C           -1.7184    -3.8896     2.0988 C       7      r7    -0.0011
   1092 C           -1.1669    -2.5495     2.4050 C       0      r0    -0.0008
   1093 C            0.2098    -2.1186     2.4207 C       6      r6    -0.0012
   1094 C            0.3810    -4.4124     0.1152 C       7      r7     0.0006
   1095 C            0.5174    -0.7663     3.0596 C       6      r6     0.0007
   1096 C            1.4088    -0.7965     0.0430 C       6      r6    -0.0005
   1097 C            1.3791    -2.7775     1.8173 C       6      r6     0.0006
   1098 C            1.5108    -3.4148     0.4096 C       6      r6    -0.0002
   1099 C            2.3146    -0.4738     1.3578 C       6      r6    -0.0025
   1100 C            2.5982    -4.3426     4.4194 C       6      r6     0.0284
   1101 C            2.5451    -1.9135     1.9873 C       6      r6    -0.0007
   1102 C            3.1474    -3.0022     4.1498 C       6      r6    -0.0086
   1103 C            3.5765    -2.2385     2.9584 C       6      r6     0.0008
   1104 C            4.1283    -3.9968     0.2252 C       6      r6    -0.0025
   1105 C            4.7047    -1.2868     2.9218 C       6      r6    -0.0036
   1106 C            4.7800    -0.4037     1.7357 C       6      r6    -0.0023
   1107 C            6.0225    -4.2515     1.9459 C       5      r5    -0.0025
   1108 C            6.9080    -3.3132     1.4709 C       6      r6    -0.0011
   1109 C            6.7952    -2.7107     0.2011 C       6      r6    -0.0019
   1110 C            7.8101    -4.1966     3.4728 C       5      r5    -0.0013
   1111 C            7.9146    -3.2449     2.4507 C       6      r6     0.0006
   1112 C            7.8761    -1.7983    -0.0151 C       6      r6     0.0009
   1113 C            8.6806    -1.4298     1.1244 C       6      r6     0.0062
   1114 C            8.7222    -2.1372     2.3931 C       6      r6     0.0039
   1115 C            9.5751    -0.4198     1.1277 C       6      r6     0.0176
   1116 C            9.7776    -1.5125     3.1155 C       6      r6     0.0023
   1117 C           10.2852    -0.3677     2.4419 C       6      r6     0.0407
   1118 C           10.9891    -3.7941     3.5813 C       5      r5    -0.0003
   1119 C           12.1606    -3.8443     2.8016 C       7      r7     0.0335
   1120 O           12.4635    -1.0760     1.0732 O       6      r6    -0.5191
   1121 C           13.0759     0.1836     0.6644 C       6      r6     0.2646
   1122 C           13.2266    -2.8090     2.9126 C       5      r5    -0.0620
   1123 C           13.3316    -1.7216     2.1477 C       6      r6     0.2603
   1124 C          -13.5941     2.3528     2.7031 C       5      r5     0.0012
   1125 C          -13.4675     0.4898     1.0679 C       6      r6    -0.0654
   1126 C          -12.9338     0.1111     2.2636 C       6      r6     0.0414
   1127 C          -13.0646     1.1387     3.2838 C       0      r0    -0.0072
   1128 C          -12.7565     1.5243     0.5306 C       6      r6     0.0127
   1129 C          -12.5844     3.4548     2.5786 C       5      r5    -0.0016
   1130 C          -11.3131     1.7741     0.4961 C       5      r5    -0.0027
   1131 C          -11.1142     3.5841     2.7034 C       5      r5    -0.0004
   1132 C          -10.1527     0.9917     1.0087 C       6      r6    -0.0002
   1133 C           -9.9941     2.6886     2.9497 C       5      r5    -0.0006
   1134 C           -9.7084     1.3636     2.3200 C       6      r6    -0.0000
   1135 C           -9.0127     0.4342     0.1687 C       6      r6    -0.0001
   1136 C           -8.7842     3.4676     3.0782 C       5      r5     0.0008
   1137 C           -8.4759     0.6866     2.7629 C       6      r6     0.0008
   1138 C           -7.4144     3.3933     3.4720 C       5      r5     0.0026
   1139 C           -7.1448     1.2630     2.4709 C       6      r6     0.0010
   1140 C           -6.4788     2.3895     3.1151 C       5      r5     0.0002
   1141 C           -6.1484     0.5768     1.7488 C       6      r6     0.0012
   1142 C           -5.0997     2.4163     2.7356 C       5      r5    -0.0012
   1143 C           -4.9039     1.3487     1.8216 C       5      r5    -0.0012
   1144 C           -4.1265     3.1876     3.3320 C       6      r6    -0.0008
   1145 C           -3.6501     1.1336     1.1710 C       0      r0     0.0002
   1146 C           -3.2534     0.3061     4.0561 C       6      r6     0.0000
   1147 C           -2.7648     2.7546     3.5350 C       6      r6     0.0001
   1148 C           -1.8360     3.8163     3.4910 C       6      r6     0.0003
   1149 C            1.4994     0.2024     2.5806 C       6      r6     0.0045
   1150 C            1.9767     1.3665     3.2556 C       7      r7    -0.0343
   1151 O            2.0723     3.9957     2.8833 O       5      r5    -0.4976
   1152 C            2.3161     2.5979     2.4512 C       5      r5     0.2409
   1153 C            3.2732     2.5544     1.4178 C       6      r6    -0.0358
   1154 C            3.6622     0.1303     0.9817 C       6      r6    -0.0061
   1155 C            3.7099     3.9050     1.0619 C       6      r6    -0.0392
   1156 C            3.8746     1.4996     0.5899 C       6      r6     0.0088
   1157 C            4.7641     4.3616     0.1542 C       6      r6     0.0069
   1158 C            6.0534     0.2665     1.4344 C       6      r6    -0.0022
   1159 C            6.0821     0.9019     0.0544 C       6      r6    -0.0012
   1160 C            6.6427    -0.0578     3.8613 C       6      r6    -0.0030
   1161 C            6.8117     0.7153     2.5857 C       6      r6    -0.0023
   1162 C            7.6226     1.8900     2.2342 C       6      r6    -0.0040
   1163 C            8.1106     2.8760     3.2346 C       7      r7    -0.0018
   1164 C            7.9820     2.1280     0.8231 C       6      r6    -0.0037
   1165 C            8.6630     4.1528     2.6689 C       6      r6    -0.0012
   1166 C            8.9752     3.0502     0.1151 C       6      r6     0.0006
   1167 C            9.7297     0.3061    -0.0226 C       6      r6     0.0339
   1168 C           10.0606     4.1690     2.9631 C       6      r6    -0.0028
   1169 C           10.8594     2.9910     3.6267 C       7      r7    -0.0039
   1170 C           10.8295     1.2268    -0.1491 C       6      r6     0.0488
   1171 C           11.1539     0.5863     3.1028 C       6      r6     0.0110
   1172 C           11.5870     2.0249     2.7954 C       7      r7     0.0005
   1173 C           12.2914     1.1287    -0.0243 C       6      r6    -0.0422
   1174 C           12.9103     2.7004     2.3763 C       5      r5    -0.0019
   1175 C           13.1529     4.1385     2.1679 C       6      r6    -0.0010
   1176 C          -13.5564     5.4977     3.8221 C       6      r6     0.0002
   1177 C          -13.4501     4.6380     2.5943 C       6      r6     0.0016
   1178 C          -13.2879     8.2744     1.0124 C       6      r6    -0.0006
   1179 C          -12.2159     6.0756     4.1110 C       7      r7    -0.0005
   1180 C          -11.2474     8.3991     2.7959 C       7      r7    -0.0042
   1181 C          -11.1774     6.1757     3.0594 C       7      r7     0.0000
   1182 C          -10.8822     7.2066     2.0205 C       0      r0    -0.0008
   1183 C          -10.5078     4.9248     2.7865 C       5      r5     0.0003
   1184 C          -10.1536     7.3593     0.7477 C       0      r0    -0.0026
   1185 C           -9.5557     6.1368     0.1144 C       6      r6     0.0017
   1186 C           -9.0765     4.8887     2.9958 C       5      r5    -0.0000
   1187 C           -8.2342     5.4601    -0.0065 C       6      r6     0.0019
   1188 C           -7.9531     5.7140     3.2630 C       6      r6    -0.0006
   1189 C           -7.6558     7.1431     3.2376 C       6      r6     0.0009
   1190 C           -7.6504     8.1451     2.2452 C       6      r6     0.0003
   1191 C           -7.3943     7.7137     0.9357 C       5      r5     0.0005
   1192 C           -7.1993     6.3330     0.3992 C       6      r6     0.0010
   1193 C           -7.0292     4.7531     3.6242 C       6      r6    -0.0005
   1194 C           -6.6085     7.4340     4.0759 C       6      r6    -0.0011
   1195 C           -5.8349     5.8345     0.4526 C       6      r6     0.0002
   1196 C           -5.6746     5.1426     3.9011 C       6      r6     0.0003
   1197 C           -5.5793     6.5203     4.2387 C       6      r6    -0.0024
   1198 C           -4.7853     6.4760     1.2911 C       6      r6    -0.0002
   1199 C           -4.6418     7.8445     1.7826 C       6      r6    -0.0011
   1200 C           -4.4187     4.5566     3.6000 C       6      r6     0.0010
   1201 C           -4.1965     6.9993     4.0406 C       6      r6    -0.0015
   1202 C           -4.0782     8.0904     3.0422 C       6      r6    -0.0005
   1203 C           -3.7559     5.6376     1.8168 C       6      r6     0.0010
   1204 C           -3.4206     5.6097     3.3489 C       6      r6    -0.0019
   1205 C           -3.2416     4.6063     0.9406 C       6      r6     0.0002
   1206 C           -2.0510     5.1649     3.3460 C       6      r6    -0.0007
   1207 C           -1.8439     4.8156     0.5320 C       7      r7     0.0050
   1208 C           -0.8326     6.0433     3.2215 C       6      r6     0.0035
   1209 C           -0.7794     5.8032     0.6584 C       7      r7     0.0034
   1210 C           -0.2203     6.3214     1.9469 C       0      r0     0.0207
   1211 C            0.9440     8.1388     0.6205 C       7      r7    -0.0023
   1212 C            1.0028     7.1175     1.6763 C       7      r7    -0.0018
   1213 C            2.3204     7.0204     2.3167 C       6      r6     0.0375
   1214 C            2.7932     8.4130     2.6190 C       6      r6    -0.0038
   1215 C            3.0515     4.7305     1.9095 C       6      r6     0.2331
   1216 C            3.2980     6.0824     1.7515 C       6      r6    -0.0504
   1217 C            4.4082     6.7100     0.9580 C       6      r6     0.0117
   1218 C            4.6810     8.1164     0.9960 C       6      r6    -0.0003
   1219 C            5.2851     5.6959     0.3774 C       6      r6    -0.0055
   1220 C            7.7124     5.1654     0.4878 C       7      r7    -0.0036
   1221 C            8.1329     5.3441     1.8790 C       6      r6     0.0023
   1222 C            8.0774     7.8688     1.7699 C       0      r0     0.0032
   1223 C            8.7438     6.6704     2.1235 C       6      r6     0.0024
   1224 C           10.2139     6.5336     2.0621 C       6      r6    -0.0019
   1225 C           10.8016     5.1710     2.1797 C       6      r6    -0.0014
   1226 C           11.2900     7.4009     1.9191 C       5      r5    -0.0006
   1227 C           12.2232     5.2529     1.9722 C       6      r6    -0.0012
   1228 C           12.7301     6.6664     2.0662 C       6      r6    -0.0003
   1229 C           13.2095     6.7991     3.6330 C       6      r6     0.0008
   1230 C           13.6520     7.2480     0.9085 C       6      r6    -0.0008
   1231 C           13.8203     8.0562     4.1096 C       7      r7    -0.0089
   1232 C          -13.1808    11.3410     1.3828 C       6      r6     0.0313
   1233 C          -12.5108     9.0921     2.2448 C       6      r6     0.0001
   1234 C          -12.5024    12.3523     0.6665 C       5      r5    -0.0392
   1235 C          -12.1724    10.5274     1.9010 C       6      r6    -0.0093
   1236 C          -11.0894    12.2328     0.9245 C       5      r5    -0.0088
   1237 C          -10.9397    11.1562     1.8495 C       5      r5     0.0058
   1238 C          -10.4916     8.7017     4.0204 C       6      r6     0.0009
   1239 C           -9.9641    11.0062     2.8347 C       5      r5     0.0018
   1240 C           -9.8463     9.9498     3.7784 C       6      r6     0.0076
   1241 C           -9.1637    12.0612     3.3813 C       5      r5    -0.0565
   1242 C           -8.2068    12.8885     1.3064 C       6      r6     0.0026
   1243 C           -7.1870     9.5595     2.2696 C       6      r6    -0.0005
   1244 C           -6.8565    12.4019     1.5931 C       6      r6     0.0006
   1245 C           -7.0676    10.0970     0.9418 C       5      r5    -0.0027
   1246 C           -6.5168     9.8978     3.5564 C       6      r6    -0.0032
   1247 C           -6.4358    11.4380     0.4452 C       6      r6    -0.0020
   1248 C           -6.1798    12.2329     2.9098 C       7      r7     0.0195
   1249 C           -5.9906    11.2051     3.9370 C       6      r6     0.0180
   1250 C           -4.9238    11.4176     0.5479 C       6      r6    -0.0021
   1251 C           -4.5547     8.9539     0.8158 C       6      r6    -0.0025
   1252 C           -4.2208    12.6488     0.4647 C       6      r6    -0.0018
   1253 C           -4.3254    10.3312     1.3397 C       6      r6    -0.0018
   1254 C           -3.4597    10.3944     2.4812 C       6      r6    -0.0016
   1255 C           -3.3166     9.2596     3.3536 C       6      r6    -0.0014
   1256 C           -2.4702    11.4638     2.7461 C       6      r6    -0.0029
   1257 C           -2.1663    12.6723     1.9579 C       5      r5    -0.0029
   1258 C           -1.7372    11.5708     3.9371 C       6      r6     0.0030
   1259 C            0.0247    10.3528     0.0246 C       6      r6    -0.0014
   1260 C            0.4945     9.5055     1.0961 C       6      r6    -0.0015
   1261 C            0.2268    11.7534     0.1591 C       6      r6    -0.0007
   1262 C            0.9189    10.0454     2.3827 C       6      r6    -0.0007
   1263 C            1.2268    12.2052     1.2005 C       6      r6     0.0004
   1264 C            1.3491    11.4217     2.4123 C       6      r6    -0.0017
   1265 C            1.6951     9.1151     3.2852 C       7      r7     0.0005
   1266 C            1.7733    12.1116     3.6662 C       6      r6    -0.0008
   1267 C            3.5082    10.2208     0.9624 C       5      r5    -0.0026
   1268 C            3.8033     8.9983     1.7789 C       6      r6     0.0039
   1269 C            4.2802    11.3239     0.3488 C       5      r5     0.0006
   1270 C            5.4576    12.0719     0.8179 C       7      r7     0.0003
   1271 C            5.6114     8.9494     0.1624 C       0      r0    -0.0006
   1272 C            6.7347     9.7724     0.7624 C       0      r0    -0.0018
   1273 C            6.6940    11.3084     0.7688 C       7      r7    -0.0008
   1274 C            7.5137     8.8185     1.4263 C       0      r0    -0.0006
   1275 C            7.9704    11.9659     0.3668 C       7      r7    -0.0025
   1276 C           10.3445    12.0347     3.9308 C       6      r6    -0.0012
   1277 C           11.0153    11.2146     3.0739 C       6      r6    -0.0015
   1278 C           11.0806     8.8321     1.8889 C       0      r0    -0.0024
   1279 C           11.0107     9.2215     0.5900 C       0      r0    -0.0038
   1280 C           11.2386    11.9503     1.9964 C       6      r6    -0.0069
   1281 C           11.6416     9.7702     3.1734 C       6      r6    -0.0023
   1282 C           12.2808    11.7143     1.1399 C       6      r6     0.0236
   1283 C           13.1245    10.0495     2.7542 C       6      r6    -0.0029
   1284 C           13.3401    10.9701     1.6481 C       6      r6    -0.0022
   1285 C          -13.7861     9.1639     3.2210 C       6      r6    -0.0002
   1286 C          -13.7736    -9.4016     7.6975 C       7      r7    -0.0017
   1287 C          -13.4700   -12.5066     6.3679 C       6      r6     0.0009
   1288 C          -12.0279   -12.4187     6.4740 C       6      r6     0.0004
   1289 C          -11.4514    -8.7988     6.5736 C       6      r6    -0.0014
   1290 C          -11.2783   -10.0931     5.8833 C       6      r6     0.0018
   1291 C          -11.3103   -11.2221     6.8267 C       6      r6     0.0014
   1292 C          -10.1710   -10.9578     7.7801 C       6      r6    -0.0020
   1293 C          -10.2006   -10.2856     4.8416 C       0      r0    -0.0044
   1294 C           -9.9200    -9.6163     8.2686 C       6      r6    -0.0035
   1295 C           -9.0204   -11.7974     8.0356 C       7      r7     0.0074
   1296 C           -8.8763   -10.4240     5.0668 C       0      r0     0.0455
   1297 C           -7.6053   -10.5625     5.3032 C       5      r5     0.0117
   1298 C           -7.5742   -11.3480     7.9123 C       5      r5     0.0086
   1299 C           -7.0399   -11.0107     6.5750 C       5      r5     0.0395
   1300 C           -6.5102    -9.6532     4.6943 C       6      r6     0.2152
   1301 C           -5.6874   -10.8012     6.5519 C       5      r5    -0.0164
   1302 C           -5.1414   -11.0374     7.9150 C       5      r5     0.1905
   1303 C           -5.1656   -10.3058     5.2921 C       6      r6    -0.0269
   1304 C           -4.4123   -11.0638     4.2500 C       6      r6     0.0328
   1305 C           -4.4211    -8.9393     5.6947 C       5      r5     0.0448
   1306 C           -4.3276   -12.3358     8.1307 C       5      r5    -0.0629
   1307 C           -4.0576   -12.8571     5.4770 C       0      r0     0.0349
   1308 C           -3.4221   -11.9709     4.8117 C       0      r0     0.0013
   1309 C           -3.0044   -12.0238     8.1797 C       5      r5     0.1913
   1310 C           -2.9364   -10.7187     8.3423 C       5      r5     0.1473
   1311 C           -1.7911   -11.8981     4.5974 C       0      r0     0.0276
   1312 O           -1.8577   -12.7125     7.5182 O       5      r5    -0.5009
   1313 C           -1.6565   -10.3578     7.8496 C       6      r6     0.1782
   1314 C           -1.4005   -10.6586     4.2756 C       0      r0    -0.0005
   1315 O           -1.2284    -8.9581     7.5356 O       6      r6    -0.4972
   1316 C           -0.9801   -11.4612     7.4099 C       6      r6     0.1647
   1317 C            0.0318    -8.7562     6.7034 C       6      r6     0.1864
   1318 C            0.1066   -11.1826     6.5473 C       6      r6    -0.0127
   1319 C            0.7798    -9.8751     6.2575 C       6      r6    -0.0175
   1320 C            0.7840   -12.2006     5.7729 C       6      r6     0.0172
   1321 C            1.7726   -11.6283     4.9242 C       6      r6    -0.0094
   1322 C            1.8776   -10.2031     5.2756 C       5      r5     0.0252
   1323 C            2.9808   -11.0706     8.2840 C       7      r7    -0.0025
   1324 C            3.2048    -9.6320     5.3137 C       5      r5     0.0070
   1325 C            3.5574    -8.6214     6.3139 C       5      r5     0.0365
   1326 C            4.3247    -9.9619     4.3819 C       5      r5    -0.0014
   1327 C            5.0654   -12.7330     7.8782 C       6      r6    -0.0038
   1328 C            5.4493    -9.0837     4.8552 C       5      r5     0.0019
   1329 C            6.3817   -12.5659     7.2201 C       6      r6    -0.0019
   1330 C            6.8885    -9.3819     5.0103 C       6      r6     0.0001
   1331 C            7.0633   -10.7079     5.5829 C       6      r6    -0.0018
   1332 C            7.0153   -11.8349     4.6440 C       7      r7    -0.0026
   1333 C            7.3642   -11.7261     7.9026 C       6      r6    -0.0017
   1334 C            7.6077   -10.6683     6.9491 C       6      r6    -0.0016
   1335 C            8.7273    -9.7809     7.3148 C       6      r6    -0.0000
   1336 C            8.9630    -8.7625     6.2886 C       6      r6    -0.0007
   1337 C            9.0409   -12.9134     5.6944 C       6      r6    -0.0018
   1338 C            9.6847   -11.6420     5.4225 C       6      r6    -0.0014
   1339 C           10.3472    -8.7448     5.8306 C       7      r7     0.0008
   1340 C           10.9290   -11.2478     6.1317 C       6      r6    -0.0003
   1341 C           11.2993    -9.8776     5.8872 C       6      r6     0.0035
   1342 C           12.0905   -12.0833     6.2575 C       6      r6    -0.0001
   1343 C           12.6563    -9.3868     5.7297 C       6      r6     0.0024
   1344 C           13.3716   -11.5926     6.4266 C       6      r6    -0.0010
   1345 C           13.6150   -10.1402     6.5211 C       6      r6    -0.0016
   1346 C          -13.8392    -5.9318     5.6409 C       7      r7    -0.0018
   1347 C          -13.7955    -5.1959     4.3236 C       7      r7     0.0003
   1348 C          -12.7267    -7.0690     7.6518 C       7      r7     0.0000
   1349 C          -12.6057    -8.5184     7.4576 C       7      r7    -0.0019
   1350 C          -12.7062    -6.1082     6.5166 C       7      r7    -0.0017
   1351 C          -11.8139    -4.9539     6.5805 C       5      r5    -0.0004
   1352 C          -10.2404    -8.4930     7.3832 C       6      r6     0.0013
   1353 C          -10.4475    -5.0238     7.1869 C       5      r5    -0.0019
   1354 C           -9.5858    -7.3208     7.8398 C       6      r6    -0.0014
   1355 C           -9.3789    -6.0370     7.1788 C       6      r6    -0.0019
   1356 C           -8.0194    -6.0339     6.5740 C       6      r6     0.0006
   1357 C           -7.9984    -6.4348     5.1811 C       7      r7    -0.0104
   1358 C           -6.9047    -6.4827     7.4987 C       6      r6    -0.0035
   1359 C           -6.9437    -7.2917     4.6329 C       7      r7     0.0566
   1360 C           -6.4981    -4.2474     4.4540 C       5      r5    -0.0011
   1361 C           -6.6258    -8.4136     5.2978 C       5      r5    -0.0440
   1362 C           -5.6368    -6.8565     6.8416 C       7      r7     0.0047
   1363 C           -5.5872    -8.1000     6.0969 C       5      r5     0.0130
   1364 C           -4.3927    -6.4936     7.5851 C       5      r5     0.0025
   1365 C           -3.3202    -8.5726     5.0856 C       0      r0     0.0149
   1366 C           -3.2771    -6.0118     6.8161 C       6      r6    -0.0115
   1367 C           -3.2662    -4.8156     5.9912 C       6      r6    -0.0014
   1368 C           -2.1809    -8.2730     4.4527 C       6      r6     0.0130
   1369 C           -2.1039    -6.6857     7.3768 C       6      r6     0.0564
   1370 C           -1.8310    -4.4709     5.6750 C       6      r6     0.0142
   1371 C           -0.8617    -6.6180     6.6394 C       6      r6    -0.0035
   1372 C           -0.7640    -5.4877     5.8151 C       6      r6    -0.0628
   1373 C            0.2363    -7.4474     6.3541 C       5      r5     0.1983
   1374 C            0.4910    -5.6348     5.2875 C       6      r6     0.2347
   1375 C            1.0708    -4.4849     4.8456 C       6      r6    -0.0388
   1376 O            1.2812    -6.9368     5.4326 O       5      r5    -0.4984
   1377 C            3.1166    -8.4299     7.6774 C       7      r7     0.0039
   1378 C            3.1879    -7.0586     8.2673 C       5      r5     0.0110
   1379 C            3.5151    -4.6932     8.3875 C       6      r6     0.0026
   1380 C            3.9547    -5.9450     7.8644 C       6      r6     0.0083
   1381 C            4.9009    -8.1715     5.8780 C       5      r5    -0.0011
   1382 C            5.0063    -5.8930     6.9515 C       6      r6     0.0047
   1383 C            5.4989    -6.9202     6.0890 C       7      r7     0.0059
   1384 C            5.5747    -4.6177     6.7714 C       6      r6    -0.0002
   1385 C            6.3761    -6.5321     4.9338 C       7      r7     0.0017
   1386 C            7.7874    -6.9061     4.9939 C       7      r7    -0.0018
   1387 C            7.8401    -8.2993     5.4299 C       6      r6    -0.0002
   1388 C            8.0333    -5.2482     6.8731 C       6      r6    -0.0014
   1389 C            8.7039    -5.8226     5.6370 C       6      r6    -0.0010
   1390 C            8.6950    -5.5368     8.1811 C       6      r6    -0.0007
   1391 C            8.8837    -4.4440     4.5294 C       5      r5    -0.0008
   1392 C           10.0629    -6.3919     6.0532 C       6      r6    -0.0018
   1393 C           10.1263    -5.3843     8.2722 C       6      r6     0.0004
   1394 C           10.6605    -7.4532     5.2455 C       7      r7    -0.0005
   1395 C           10.8641    -6.0804     7.1741 C       6      r6     0.0002
   1396 C           12.2630    -6.4257     7.2338 C       7      r7     0.0004
   1397 C           12.9780    -8.0367     5.1579 C       7      r7    -0.0005
   1398 C           12.9034    -6.8121     5.9533 C       7      r7    -0.0007
   1399 C           13.9401    -0.3073     7.2092 C       6      r6    -0.0000
   1400 C          -13.4835    -2.9665     3.9821 C       5      r5     0.0050
   1401 C          -13.3098    -2.6120     6.4568 C       6      r6    -0.0011
   1402 C          -13.2368    -1.5291     7.5062 C       6      r6    -0.0005
   1403 C          -12.1889    -3.5562     6.6925 C       5      r5    -0.0010
   1404 C          -11.4340    -2.9055     7.7990 C       5      r5     0.0010
   1405 C          -10.8745    -0.6342     4.9954 C       6      r6     0.0010
   1406 C          -10.4592    -3.9417     8.1508 C       5      r5     0.0012
   1407 C           -9.5096    -0.6047     5.6067 C       6      r6     0.0007
   1408 C           -8.5164    -1.2829     4.7567 C       6      r6     0.0009
   1409 C           -7.9037    -2.4961     5.2699 C       5      r5     0.0005
   1410 C           -7.8446    -3.6916     4.4140 C       5      r5     0.0009
   1411 C           -7.1966    -2.8455     7.6643 C       6      r6    -0.0012
   1412 C           -6.8748    -2.8312     6.2513 C       6      r6     0.0003
   1413 C           -6.1906    -3.6495     8.3447 C       6      r6    -0.0015
   1414 C           -5.8395    -3.6996     5.6403 C       6      r6    -0.0026
   1415 C           -4.8661    -3.7745     7.6781 C       6      r6    -0.0015
   1416 C           -4.6025    -4.0818     6.3057 C       6      r6    -0.0023
   1417 C           -3.6611    -0.2208     5.3794 C       6      r6     0.0013
   1418 C           -2.9946    -1.4866     5.6777 C       6      r6    -0.0024
   1419 C           -2.6186    -1.5631     7.0860 C       6      r6    -0.0021
   1420 C           -2.4181    -0.2186     7.7407 C       6      r6    -0.0004
   1421 C           -2.6357    -2.5515     8.1820 C       5      r5    -0.0010
   1422 C           -2.1906    -2.2170     4.6791 C       6      r6    -0.0017
   1423 C           -1.2353    -3.3082     5.0872 C       6      r6    -0.0071
   1424 C            0.0412    -0.4589     7.8026 C       0      r0    -0.0021
   1425 C            0.2659    -3.2617     4.9994 C       6      r6     0.0036
   1426 C            0.2395    -0.8675     4.4991 C       0      r0     0.0001
   1427 C            0.9941    -2.0050     5.1107 C       6      r6    -0.0017
   1428 C            2.4916    -2.0303     5.0845 C       6      r6     0.0025
   1429 C            3.5045    -1.0749     5.4467 C       7      r7     0.0013
   1430 C            4.0419    -3.4227     8.1054 C       6      r6    -0.0002
   1431 C            4.9926    -3.3646     7.1027 C       6      r6     0.0017
   1432 C            4.9951    -1.3967     5.4418 C       7      r7    -0.0012
   1433 C            5.6841    -2.3093     6.3370 C       5      r5    -0.0002
   1434 C            5.5102    -0.9358     4.1056 C       6      r6    -0.0027
   1435 C            7.0071    -2.9579     6.1067 C       5      r5    -0.0008
   1436 C            6.9228    -4.3264     6.5434 C       5      r5    -0.0003
   1437 C            8.2952    -2.3358     5.6849 C       7      r7    -0.0006
   1438 C            8.2575    -0.8278     5.8479 C       5      r5    -0.0012
   1439 C            8.3594    -0.1795     7.1623 C       5      r5    -0.0003
   1440 C            9.2972    -3.0584     5.0670 C       5      r5    -0.0021
   1441 C           10.3801    -2.4318     4.2189 C       6      r6     0.0052
   1442 C           11.4800    -1.4000     4.6840 C       6      r6     0.0035
   1443 C           11.5408     0.0071     4.3872 C       6      r6    -0.0003
   1444 C           12.6814    -1.6647     5.4472 C       6      r6    -0.0012
   1445 C           13.0510    -0.2933     6.0568 C       6      r6     0.0013
   1446 C           13.6813    -2.6672     5.3915 C       6      r6     0.0005
   1447 C          -12.7831     2.5146     5.3269 C       6      r6    -0.0022
   1448 C          -12.7208     4.0175     7.3165 C       0      r0    -0.0008
   1449 C          -12.4891     1.2725     4.6201 C       6      r6     0.0019
   1450 C          -11.9612     3.2819     6.2682 C       6      r6    -0.0014
   1451 C          -11.4329     0.5873     5.2975 C       6      r6    -0.0005
   1452 C          -10.6960     2.6357     6.6986 C       6      r6    -0.0025
   1453 C          -10.5511     1.2298     6.3592 C       6      r6    -0.0028
   1454 C           -9.4593     3.3531     7.1019 C       6      r6    -0.0012
   1455 C           -9.2917     0.4907     6.4485 C       6      r6     0.0019
   1456 C           -8.2111     2.6273     6.7636 C       6      r6    -0.0020
   1457 C           -8.0402     1.1919     6.9106 C       6      r6     0.0003
   1458 C           -6.9106     3.3113     6.6070 C       6      r6     0.0005
   1459 C           -6.6884     0.7748     7.2790 C       6      r6     0.0025
   1460 C           -5.6141     2.7977     6.2979 C       6      r6    -0.0004
   1461 C           -5.5415     1.3282     6.4870 C       6      r6     0.0012
   1462 C           -4.7267     3.9240     6.6822 C       5      r5     0.0009
   1463 C           -4.2612     0.5927     6.4780 C       6      r6     0.0004
   1464 C           -3.6226     0.5957     7.7966 C       6      r6     0.0018
   1465 C           -3.4106     3.7802     7.0921 C       0      r0    -0.0005
   1466 C           -2.3271     1.4572     4.0244 C       6      r6     0.0003
   1467 C           -2.1951     3.5926     7.5343 C       5      r5    -0.0014
   1468 C           -1.1751     0.1553     8.3793 C       6      r6     0.0003
   1469 C           -1.0492     1.2803     4.6473 C       6      r6    -0.0003
   1470 C           -0.5844     3.6875     4.1157 C       6      r6     0.0232
   1471 C           -0.2958     0.2002     5.3251 C       6      r6     0.0005
   1472 C           -0.2520     2.4925     4.7650 C       6      r6     0.0091
   1473 C            0.3902     0.4321     6.6222 C       6      r6     0.0003
   1474 C            0.6349     2.6973     5.8574 C       6      r6     0.0046
   1475 C            0.8976     1.7460     6.8952 C       6      r6    -0.0016
   1476 C            0.9045     4.0597     5.7483 C       6      r6     0.0113
   1477 C            2.0902     1.9153     7.8165 C       6      r6    -0.0003
   1478 C            2.6458     3.3419     8.1437 C       6      r6    -0.0007
   1479 C            2.9313     0.2972     5.7404 C       0      r0    -0.0044
   1480 C            2.7406     1.2575     4.5346 C       0      r0     0.0090
   1481 C            3.0505     0.6950     7.1238 C       0      r0    -0.0013
   1482 C            3.4561     2.3029     5.0548 C       0      r0     0.0291
   1483 C            4.2053     0.1981     7.8486 C       6      r6    -0.0014
   1484 C            4.2232     2.6001     6.0406 C       0      r0     0.0023
   1485 C            5.0356     3.5981     8.2634 C       0      r0    -0.0078
   1486 C            5.0451     2.5643     7.1741 C       0      r0     0.0058
   1487 C            5.2310     1.2319     7.8229 C       6      r6    -0.0024
   1488 C            7.8049     0.0443     4.7479 C       5      r5    -0.0045
   1489 C            7.7679     3.6984     7.0073 C       6      r6     0.0026
   1490 C            8.2946     2.6605     4.6742 C       6      r6     0.0001
   1491 C            8.1125     1.4013     5.3689 C       6      r6    -0.0024
   1492 C            8.0005     2.4343     7.7000 C       6      r6    -0.0001
   1493 C            8.5131     3.7365     5.7043 C       6      r6    -0.0026
   1494 C            8.2814     1.2806     6.8078 C       6      r6    -0.0003
   1495 C           11.1171     4.1728     5.8645 C       6      r6    -0.0021
   1496 C           11.2275     2.9223     5.0058 C       6      r6    -0.0023
   1497 C           11.6302     3.9030     7.3394 C       5      r5    -0.0022
   1498 C           12.2845     2.7107     7.9089 C       6      r6    -0.0029
   1499 C           12.4685     0.7683     5.2754 C       5      r5     0.0007
   1500 C           12.5305     2.2434     5.1931 C       6      r6    -0.0016
   1501 C           13.6397     2.0933     8.0260 C       6      r6    -0.0016
   1502 C           13.7122     3.0628     5.0622 C       6      r6    -0.0007
   1503 C          -13.1947     6.3495     6.3508 C       7      r7     0.0064
   1504 C          -12.9344     5.4502     7.4825 C       7      r7    -0.0040
   1505 C          -11.9471     6.3643     5.4966 C       7      r7     0.0024
   1506 C          -10.8120     7.0592     6.0697 C       5      r5     0.0125
   1507 C          -10.3993     7.0867     7.4966 C       6      r6     0.0145
   1508 C          -10.0241     7.8891     5.1940 C       6      r6     0.0013
   1509 C           -9.0281     8.3572     6.0877 C       6      r6    -0.0054
   1510 C           -9.2287     7.8856     7.4257 C       6      r6    -0.0044
   1511 C           -9.1478     4.4455     8.0075 C       6      r6    -0.0041
   1512 C           -7.8599     5.1568     7.8841 C       6      r6    -0.0032
   1513 C           -6.8448     4.7357     6.8666 C       6      r6    -0.0017
   1514 C           -5.5075     5.1768     7.0538 C       6      r6    -0.0022
   1515 C           -5.2440     6.2709     7.9893 C       6      r6    -0.0020
   1516 C           -4.8728     7.5280     7.4728 C       6      r6    -0.0002
   1517 C           -4.8573     7.7273     6.1505 C       6      r6    -0.0006
   1518 C           -3.7159     7.4031     5.3510 C       6      r6    -0.0002
   1519 C           -2.5774     8.2787     5.3655 C       6      r6     0.0004
   1520 C           -1.7462     8.3340     6.4723 C       6      r6    -0.0022
   1521 C           -1.4804     7.0988     7.0921 C       0      r0    -0.0018
   1522 C           -1.3559     5.9815     7.5259 C       0      r0    -0.0040
   1523 C           -1.2446     4.6876     7.9782 C       5      r5    -0.0041
   1524 C            0.0617     6.0919     4.3619 C       6      r6     0.0030
   1525 C            0.1891     4.6967     4.7198 C       6      r6     0.0395
   1526 C            1.1254     7.0159     4.8462 C       6      r6     0.0076
   1527 C            1.4155     8.4216     4.5693 C       6      r6    -0.0013
   1528 C            1.7821     6.2654     5.9139 C       6      r6     0.0090
   1529 C            1.7597     4.9409     6.3931 C       6      r6     0.0075
   1530 C            2.4816     6.9783     6.8506 C       6      r6     0.0030
   1531 C            2.5814     4.6212     7.5170 C       5      r5     0.0033
   1532 C            2.5472     8.3706     6.7742 C       6      r6     0.0039
   1533 C            2.9954     6.0344     7.8485 C       6      r6     0.0029
   1534 C            5.7897     4.7369     8.2529 C       0      r0     0.0291
   1535 C            7.1553     4.9319     7.5220 C       6      r6    -0.0345
   1536 O            7.2914     7.5216     7.2596 O       6      r6    -0.4960
   1537 C            7.8418     6.0860     7.0633 C       6      r6     0.2381
   1538 C            8.1284     8.5344     6.4968 C       6      r6     0.2514
   1539 C            9.1545     5.8652     6.5083 C       6      r6    -0.0539
   1540 C            9.2726     8.2301     5.7575 C       6      r6    -0.0583
   1541 C            9.6510     4.6119     5.8703 C       6      r6     0.0089
   1542 C            9.9974     6.9612     5.9646 C       6      r6     0.0371
   1543 C           11.4618     6.8715     5.8252 C       7      r7    -0.0068
   1544 C           11.8693     6.8973     8.2870 C       5      r5     0.0046
   1545 C           12.1074     6.3216     4.6259 C       5      r5    -0.0012
   1546 C           12.3050     4.9811     4.9825 C       6      r6    -0.0012
   1547 C           12.3862     6.9951     6.9330 C       7      r7    -0.0051
   1548 C           13.5563     4.5153     4.8574 C       6      r6    -0.0033
   1549 C           13.7600     7.4593     6.5076 C       7      r7     0.0576
   1550 C           13.8970     8.5371     5.5435 C       7      r7     0.0175
   1551 C          -13.5915    11.0173     5.8635 C       6      r6     0.0215
   1552 O          -12.8215     9.0253     8.0636 O       7      r7    -0.5186
   1553 C          -12.2469    11.0557     6.5400 C       6      r6    -0.0489
   1554 C          -11.9368    10.1809     7.6238 C       5      r5     0.2447
   1555 C          -11.4079    12.2449     6.6844 C       6      r6     0.0088
   1556 C          -10.4111    12.0322     7.7045 C       5      r5     0.0003
   1557 C           -8.9345    10.4303     4.7671 C       6      r6    -0.0731
   1558 C           -8.6685    11.7521     4.6522 C       6      r6     0.2578
   1559 C           -8.5347     9.6369     5.8700 C       6      r6     0.0390
   1560 O           -7.8748    12.5490     5.6599 O       6      r6    -0.5137
   1561 C           -8.0457    10.2906     7.0313 C       6      r6    -0.0642
   1562 C           -8.0700     9.7771     8.3887 C       6      r6     0.0096
   1563 C           -7.9278    11.9880     8.2091 C       5      r5    -0.0574
   1564 C           -7.6484    11.6394     6.8932 C       6      r6     0.2317
   1565 C           -6.2425     8.7618     4.3991 C       6      r6     0.0013
   1566 C           -5.3737    11.1473     5.2958 C       6      r6     0.0179
   1567 C           -5.5921     8.7835     5.6132 C       6      r6     0.0005
   1568 C           -5.3343    10.0743     6.2242 C       6      r6    -0.0067
   1569 C           -4.9358     8.7516     8.2349 C       6      r6     0.0012
   1570 C           -4.9964    10.0488     7.6783 C       6      r6     0.0004
   1571 C           -4.8021    12.3557     7.7164 C       6      r6     0.0321
   1572 C           -4.7997    12.1899     6.1514 C       6      r6     0.0157
   1573 C           -2.5390     9.3535     4.5639 C       6      r6    -0.0005
   1574 C           -1.7403    10.5255     4.8372 C       6      r6    -0.0008
   1575 C           -1.3536     9.5870     6.9828 C       6      r6     0.0008
   1576 C           -1.1802    10.6648     6.0914 C       6      r6     0.0156
   1577 C           -0.9983    12.8865     4.1041 C       6      r6     0.0021
   1578 C           -0.2027    11.5613     6.4479 C       6      r6     0.0495
   1579 C            0.1895    12.4007     5.3309 C       6      r6     0.0034
   1580 C            0.6220    11.3096     7.6371 C       6      r6     0.0012
   1581 C            1.2831    11.4965     4.9323 C       6      r6    -0.0099
   1582 C            1.9741    10.8260     7.3457 C       6      r6    -0.0081
   1583 C            2.0105     9.1517     5.6895 C       6      r6     0.0032
   1584 C            1.9319    10.5908     5.8965 C       6      r6    -0.0021
   1585 C            2.9875    10.1965     8.2333 C       6      r6    -0.0021
   1586 C            3.3628     8.8799     7.8875 C       6      r6     0.0050
   1587 C            5.0779    11.8130     8.3060 C       6      r6    -0.0011
   1588 C            6.0402    10.7303     7.9643 C       6      r6    -0.0007
   1589 C            6.8211    12.2837     6.3630 C       6      r6    -0.0033
   1590 C            6.9228    10.9362     6.8662 C       6      r6     0.0275
   1591 C            7.6416   -12.9642     5.3487 C       7      r7     0.0021
   1592 C            8.0151     9.9877     6.3484 C       5      r5    -0.0432
   1593 C            9.0321    10.4948     5.4778 C       6      r6     0.0036
   1594 C            9.8109     9.3952     4.9928 C       6      r6     0.0067
   1595 C            9.8995    11.8194     5.3744 C       6      r6    -0.0016
   1596 C           11.2263     9.4807     4.5756 C       6      r6    -0.0014
   1597 C           11.3941    11.4573     5.9542 C       6      r6    -0.0007
   1598 C           11.8958    10.1949     5.6681 C       6      r6    -0.0039
   1599 C           12.2739    12.4843     6.2239 C       6      r6    -0.0017
   1600 C           13.3873     9.8968     5.7709 C       6      r6     0.0126
   1601 C           13.7293    12.3011     6.0814 C       6      r6    -0.0047
   1602 C          -12.8036   -10.1948    12.1354 C       5      r5    -0.0009
   1603 C          -11.4310   -10.0544    11.7084 C       6      r6    -0.0029
   1604 C          -10.8638   -12.5535    11.9327 C       6      r6    -0.0037
   1605 C          -10.5259   -11.1508    11.8620 C       6      r6    -0.0024
   1606 C           -9.1039   -10.8659    11.9874 C       6      r6    -0.0012
   1607 C           -8.7206    -9.2403     8.9910 C       5      r5     0.0031
   1608 C           -8.6692    -9.6820    11.4606 C       6      r6    -0.0010
   1609 C           -8.0907    -9.9002    10.1586 C       7      r7    -0.0082
   1610 C           -6.8557   -10.5995    10.0732 C       7      r7     0.0200
   1611 C           -6.4880   -11.0597     8.7615 C       5      r5    -0.0171
   1612 C           -6.2116   -10.5598    11.4515 C       7      r7     0.0036
   1613 C           -5.9895    -9.1688    11.8102 C       6      r6     0.0032
   1614 C           -4.6209    -8.6967    12.1615 C       6      r6     0.0027
   1615 O           -4.1438    -9.8590     8.3792 O       5      r5    -0.4619
   1616 C           -3.8297   -12.8625    11.1950 C       6      r6     0.0086
   1617 C           -3.6740   -11.4885    11.7371 C       6      r6     0.0062
   1618 C           -2.6794    -9.1550    10.8175 C       6      r6     0.0223
   1619 C           -2.6611   -10.5055    11.2359 C       6      r6     0.0058
   1620 C           -1.3940   -11.0922    11.1116 C       6      r6     0.0096
   1621 C           -1.4204   -12.4219    10.7095 C       6      r6     0.0136
   1622 C           -0.2025   -10.3343    11.0311 C       6      r6    -0.0060
   1623 C           -0.2225    -9.1274    10.3100 C       6      r6     0.0117
   1624 C            0.9013   -12.3864     9.2607 C       0      r0     0.0101
   1625 C            1.0879   -10.7877    11.5731 C       6      r6     0.0023
   1626 C            1.7603   -11.8463     8.7640 C       0      r0    -0.0045
   1627 C            2.1744    -9.3438     9.8320 C       6      r6    -0.0051
   1628 C            2.2803   -10.4554    10.7829 C       6      r6    -0.0061
   1629 C            2.7951    -9.5720     8.5388 C       7      r7    -0.0021
   1630 C            3.4347   -11.3171    10.9444 C       6      r6    -0.0042
   1631 C            3.6980   -11.6797    12.3280 C       6      r6     0.0067
   1632 C            4.2931   -11.6598     8.5597 C       7      r7    -0.0059
   1633 C            4.5440   -11.5020     9.9905 C       6      r6    -0.0036
   1634 C            5.6975   -12.0677    10.6884 C       6      r6     0.0011
   1635 C            6.0934   -11.4314    11.9984 C       6      r6    -0.0015
   1636 C            6.6280   -10.0803    12.1351 C       6      r6     0.0005
   1637 C            7.6722    -9.4271    11.3182 C       0      r0     0.0001
   1638 C            8.1846   -12.8922    10.1411 C       6      r6     0.0002
   1639 C            8.2306   -11.9207     9.1382 C       6      r6    -0.0006
   1640 C            8.9763   -12.8251    11.4819 C       6      r6    -0.0015
   1641 C            8.7810   -10.4282    11.0655 C       6      r6     0.0018
   1642 C            8.9250   -10.6831     9.5451 C       6      r6    -0.0007
   1643 C            9.1387   -11.4694    11.9565 C       6      r6     0.0003
   1644 C            9.5223    -9.9427     8.5254 C       6      r6     0.0007
   1645 C           10.6457    -8.9732     9.0472 C       0      r0     0.0023
   1646 C           11.6266    -9.2816    12.5127 C       7      r7     0.0003
   1647 C           11.9865    -9.2607     8.9965 C       0      r0     0.0016
   1648 C           12.7571   -10.1153    12.2561 C       5      r5    -0.0018
   1649 C           13.3774    -9.4405     9.0059 C       7      r7    -0.0013
   1650 C          -13.8686    -8.9131    10.2406 C       7      r7    -0.0010
   1651 C          -13.9445    -9.6050    11.5476 C       5      r5    -0.0012
   1652 C           13.9274    -4.5459    10.4958 C       6      r6     0.0003
   1653 C          -13.6109    -6.8760     8.7712 C       7      r7     0.0031
   1654 C          -13.2923    -7.6167    10.0300 C       7      r7     0.0012
   1655 C          -12.6071    -5.2698    10.6405 C       6      r6     0.0013
   1656 C          -12.4555    -6.7183    10.9018 C       6      r6    -0.0001
   1657 C          -11.3481    -4.5921    10.5422 C       6      r6     0.0012
   1658 C          -11.2055    -7.3656    11.2895 C       6      r6    -0.0015
   1659 C          -10.8091    -8.7125    11.5774 C       6      r6     0.0004
   1660 C          -10.0225    -6.4743    11.2654 C       6      r6    -0.0000
   1661 C           -9.9941    -5.1714    10.6253 C       6      r6     0.0010
   1662 C           -9.4373    -8.5744    11.6897 C       6      r6     0.0009
   1663 C           -8.8439    -7.2541    11.5396 C       5      r5    -0.0000
   1664 C           -8.8206    -4.6419     9.8615 C       7      r7    -0.0020
   1665 C           -8.4315    -7.8198     8.7039 C       6      r6    -0.0006
   1666 C           -7.4230    -6.9436    11.4663 C       7      r7    -0.0010
   1667 C           -7.4078    -4.6423    10.3813 C       5      r5    -0.0001
   1668 C           -7.0892    -7.2673     8.6938 C       6      r6     0.0042
   1669 C           -6.7902    -5.6500    11.2538 C       5      r5     0.0001
   1670 C           -6.5886    -8.0409    10.9902 C       6      r6    -0.0037
   1671 C           -6.0014    -7.7854     9.7031 C       6      r6     0.0072
   1672 C           -5.3900    -5.2722    11.4831 C       5      r5    -0.0019
   1673 C           -5.0500    -4.2096    10.5392 C       6      r6    -0.0004
   1674 C           -4.6089    -7.7456     9.6931 C       6      r6     0.0503
   1675 C           -4.3592    -5.9863    12.2583 C       7      r7    -0.0002
   1676 C           -3.7768    -7.1832     8.6946 C       5      r5     0.0218
   1677 C           -3.7928    -8.0671    10.9251 C       6      r6     0.0004
   1678 C           -3.2707    -6.6545    11.4992 C       6      r6    -0.0066
   1679 C           -2.4314    -7.0814     8.6400 C       5      r5     0.0481
   1680 C           -2.0743    -6.1714    11.0307 C       6      r6    -0.0090
   1681 C           -1.5170    -7.1752     9.8408 C       6      r6     0.0057
   1682 C           -1.4575    -4.8442    11.0405 C       5      r5    -0.0012
   1683 C           -1.5260    -8.5676    10.2638 C       6      r6     0.0303
   1684 C           -0.5138    -5.0610     9.9798 C       5      r5    -0.0041
   1685 C           -0.2713    -6.4444     9.8115 C       6      r6     0.0021
   1686 C            0.9393    -7.1086     9.5496 C       6      r6     0.0040
   1687 C            0.9735    -8.4685     9.8962 C       6      r6     0.0054
   1688 C            2.1099    -6.4835     9.0350 C       5      r5     0.0016
   1689 C            2.4163    -5.1043     9.1478 C       6      r6     0.0010
   1690 C            6.3230    -6.4689    12.4299 C       5      r5    -0.0016
   1691 C            6.7961    -6.8635    11.1407 C       5      r5    -0.0020
   1692 C            7.1223    -5.6974    10.3088 C       5      r5    -0.0009
   1693 C            7.7262    -7.9819    10.9388 C       5      r5    -0.0011
   1694 C            8.1067    -6.2640     9.3747 C       5      r5    -0.0004
   1695 C            8.6114    -7.4810     9.9387 C       5      r5     0.0003
   1696 C           10.1332    -7.7902     9.8767 C       0      r0     0.0012
   1697 C           10.8672    -7.3304    10.9176 C       0      r0     0.0009
   1698 C           11.5652    -6.8546    11.9926 C       6      r6    -0.0010
   1699 C           12.0925    -5.4393    12.2941 C       6      r6     0.0002
   1700 C           12.9050    -4.9898     9.3263 C       5      r5     0.0007
   1701 C           13.0811    -6.0734     8.4463 C       7      r7     0.0012
   1702 C           12.9488    -4.4422    11.7528 C       0      r0    -0.0001
   1703 C          -13.8700    -3.0536    10.1501 C       6      r6     0.0005
   1704 C          -12.7703    -0.9189    10.9051 C       5      r5     0.0004
   1705 C          -12.5884    -2.2610    10.0729 C       6      r6     0.0008
   1706 C          -12.3132    -1.9982     8.5366 C       5      r5     0.0005
   1707 C          -11.3625    -3.1651    10.6686 C       6      r6     0.0005
   1708 C          -10.0618    -1.2993    11.1937 C       6      r6     0.0001
   1709 C          -10.0715    -2.7812    11.0536 C       7      r7     0.0007
   1710 C           -9.6785    -0.6406     9.9141 C       6      r6     0.0008
   1711 C           -9.2072    -3.6195     8.8939 C       7      r7    -0.0003
   1712 C           -8.7785    -3.1095    11.7736 C       7      r7     0.0002
   1713 C           -8.6321    -1.1700     9.0179 C       0      r0     0.0019
   1714 C           -8.4728    -2.4871     8.3489 C       7      r7     0.0008
   1715 C           -7.5412    -2.3029    11.6144 C       5      r5    -0.0001
   1716 C           -7.2967    -0.6373     9.4073 C       6      r6     0.0007
   1717 C           -7.1515    -1.1009    10.8178 C       6      r6     0.0005
   1718 C           -6.2582    -0.3433    11.6258 C       6      r6     0.0006
   1719 C           -6.3068    -3.9417     9.7534 C       6      r6    -0.0005
   1720 C           -4.1422    -1.9734    12.3034 C       6      r6     0.0004
   1721 C           -3.8423    -3.6334     9.9778 C       6      r6    -0.0010
   1722 C           -3.7544    -3.5083     8.5884 C       6      r6    -0.0024
   1723 C           -3.2100    -1.4969    11.2987 C       6      r6     0.0004
   1724 C           -2.6350    -2.7780    10.5695 C       6      r6    -0.0013
   1725 C           -2.4820    -0.2400    11.4682 C       5      r5     0.0022
   1726 C           -1.7681    -2.4768     9.3119 C       5      r5    -0.0013
   1727 C           -1.7207    -3.4527    11.7163 C       6      r6    -0.0014
   1728 C           -1.0060    -0.0853    11.2977 C       6      r6     0.0013
   1729 C           -0.4348    -2.5206    11.8636 C       5      r5    -0.0008
   1730 C           -0.2971    -2.6041     9.2360 C       6      r6    -0.0014
   1731 C           -0.1360    -1.1681    11.5289 C       6      r6     0.0010
   1732 C            0.2790    -3.8908     9.4928 C       6      r6     0.0015
   1733 C            0.5379    -1.4317     8.7456 C       6      r6    -0.0009
   1734 C            0.8446    -3.0177    12.2760 C       6      r6    -0.0001
   1735 C            1.4695    -0.9386    11.2011 C       6      r6     0.0018
   1736 C            1.6322    -1.3249     9.7656 C       6      r6    -0.0002
   1737 C            1.7407    -3.8633     9.4956 C       6      r6    -0.0004
   1738 C            1.9727    -2.0942    12.0799 C       6      r6     0.0005
   1739 C            2.4263    -2.5338     9.5144 C       6      r6    -0.0009
   1740 C            3.3336    -2.4671    12.3706 C       6      r6     0.0008
   1741 C            3.5591    -2.1847     8.7000 C       6      r6    -0.0005
   1742 C            4.2699    -0.8941     8.9031 C       6      r6     0.0009
   1743 C            4.2796    -1.2446    12.5116 C       6      r6     0.0008
   1744 C            5.0454    -0.5918    10.0633 C       6      r6     0.0004
   1745 C            5.0001    -4.3151    12.2441 C       7      r7    -0.0011
   1746 C            5.1862    -1.3107    11.3644 C       6      r6     0.0010
   1747 C            5.8972    -3.7394    11.1731 C       5      r5    -0.0012
   1748 C            6.2340    -2.3057    11.1093 C       6      r6     0.0009
   1749 C            6.3955    -0.0709     9.6146 C       6      r6    -0.0011
   1750 C            7.1249    -4.3063    10.6283 C       5      r5    -0.0006
   1751 C            7.3480    -2.1795    10.2151 C       6      r6     0.0011
   1752 C            7.5002    -0.9753     9.4205 C       6      r6     0.0015
   1753 C            8.3447    -3.2987    10.3755 C       6      r6     0.0007
   1754 C            8.5660    -1.0228     8.3824 C       6      r6     0.0012
   1755 C            9.3222    -3.3343     9.1506 C       6      r6    -0.0003
   1756 C            9.3032    -2.6701    11.5024 C       6      r6     0.0008
   1757 C            9.6689    -2.0006     8.6061 C       6      r6     0.0005
   1758 C           10.0779    -1.5610    10.9961 C       6      r6     0.0010
   1759 C           10.5058    -4.1693     8.9846 C       7      r7     0.0002
   1760 C           10.6753    -1.5706     9.6243 C       6      r6     0.0017
   1761 C           10.9361    -0.6131    11.7075 C       6      r6     0.0010
   1762 C           11.9717    -3.8967     9.1773 C       5      r5    -0.0009
   1763 C           12.1025    -1.3747     9.3239 C       7      r7     0.0011
   1764 C           12.7662    -2.6868     9.4710 C       5      r5    -0.0007
   1765 C           13.0301    -1.9188    12.3871 C       6      r6     0.0012
   1766 C          -13.7995    -0.9978    11.9571 C       6      r6     0.0006
   1767 C          -13.5991     2.6686    11.8482 C       6      r6     0.0000
   1768 C          -13.1846     3.6954    10.8849 C       7      r7     0.0015
   1769 C          -13.1073     2.9863     8.3545 C       0      r0    -0.0018
   1770 C          -13.2028     1.2565    11.6442 C       6      r6    -0.0010
   1771 C          -12.5100     3.1064     9.7337 C       7      r7     0.0001
   1772 C          -12.3352     0.4621    10.7412 C       5      r5     0.0003
   1773 C          -11.1891     2.6320    10.1581 C       7      r7     0.0006
   1774 C          -11.0998     1.1682    10.2358 C       7      r7    -0.0017
   1775 C          -10.0970     3.6513    10.4296 C       5      r5     0.0041
   1776 C           -9.6989     0.7530    10.3687 C       6      r6    -0.0023
   1777 C           -9.4395     4.0059    11.6668 C       6      r6     0.0104
   1778 C           -9.0134     1.0719    11.6666 C       6      r6    -0.0005
   1779 C           -8.1694     2.1601    12.0898 C       6      r6    -0.0024
   1780 C           -6.8577     2.2635    11.7058 C       6      r6    -0.0013
   1781 C           -6.5186     0.3761     8.6997 C       6      r6     0.0011
   1782 C           -6.1505     1.0418    11.0981 C       6      r6    -0.0003
   1783 C           -5.9405     3.3019    12.1864 C       6      r6    -0.0002
   1784 C           -5.7310     1.1613     9.6845 C       6      r6     0.0004
   1785 C           -5.1862     3.9816    11.0460 C       6      r6     0.0003
   1786 C           -4.5208     2.0326     9.5579 C       6      r6     0.0007
   1787 C           -4.1026     3.1696    10.4340 C       6      r6     0.0004
   1788 C           -3.4632     1.7019     8.7244 C       6      r6    -0.0003
   1789 C           -2.9304     0.8521    12.3665 C       5      r5    -0.0005
   1790 C           -2.8047     3.6168    10.8383 C       6      r6     0.0027
   1791 C           -2.0962     2.4620     8.6633 C       6      r6    -0.0010
   1792 C           -1.5477     3.3442     9.9946 C       6      r6    -0.0002
   1793 C           -0.9040     1.5619     8.6182 C       6      r6    -0.0003
   1794 C           -0.4974     1.2621    11.8041 C       6      r6     0.0006
   1795 C           -0.3558     2.5529    10.7289 C       6      r6     0.0006
   1796 C            0.2301     1.8671     9.5061 C       5      r5    -0.0010
   1797 C            0.7621     3.3936    11.2241 C       6      r6     0.0020
   1798 C            0.9586     1.3556    12.3643 C       6      r6     0.0013
   1799 C            1.5450     2.5960    11.9983 C       5      r5    -0.0000
   1800 C            1.5953     1.5096     9.2555 C       6      r6    -0.0002
   1801 C            2.1281     0.5070    11.6226 C       6      r6     0.0016
   1802 C            2.4963     1.3595    10.3901 C       6      r6    -0.0005
   1803 C            3.6544     2.2010    10.1675 C       6      r6    -0.0032
   1804 C            3.7739     3.1694     9.0403 C       6      r6    -0.0015
   1805 C            4.5501     1.3125    12.4844 C       6      r6    -0.0006
   1806 C            4.6566     2.2320    11.2842 C       6      r6    -0.0017
   1807 C            5.8914     2.7278    10.8064 C       0      r0    -0.0032
   1808 C            6.3658     1.1128     8.7539 C       6      r6    -0.0012
   1809 C            6.9792     3.1879    10.0866 C       0      r0     0.0004
   1810 C            7.3334     2.2131     8.9620 C       0      r0    -0.0011
   1811 C            7.7887     4.3526    10.6719 C       6      r6    -0.0029
   1812 C            9.0234     4.0354    11.3958 C       6      r6     0.0022
   1813 C           10.0036     3.0789    10.7757 C       6      r6    -0.0019
   1814 C           10.5303     2.0124    11.6333 C       6      r6    -0.0003
   1815 C           10.7429     3.3871     9.5682 C       6      r6    -0.0037
   1816 C           11.0493     0.7475    11.0955 C       6      r6    -0.0002
   1817 C           11.4851     2.2900     9.1005 C       6      r6    -0.0028
   1818 C           11.7159     1.0323     9.8266 C       6      r6    -0.0013
   1819 C           12.5931     0.0138     9.2062 C       6      r6     0.0020
   1820 C           13.6089     0.6542     8.3477 C       6      r6    -0.0008
   1821 C           13.9330     0.3671    12.4807 C       6      r6    -0.0005
   1822 C          -13.7010     5.1131    10.8664 C       7      r7     0.0110
   1823 C          -13.0953     5.7303     9.8700 C       0      r0     0.0334
   1824 C          -12.4110     6.1710     8.7857 C       7      r7     0.0518
   1825 O          -11.2013     7.5184    11.2527 O       5      r5    -0.4837
   1826 C          -11.1068     6.9120     8.7396 C       6      r6    -0.0152
   1827 C          -10.5691     7.4914     9.9102 C       6      r6     0.2486
   1828 C          -10.1618     8.3880    11.9973 C       6      r6     0.2266
   1829 C           -9.4819     4.5681     9.4221 C       5      r5     0.0012
   1830 C           -9.4428     8.3615     9.8764 C       6      r6    -0.0297
   1831 C           -8.7887     8.5596     8.6051 C       6      r6     0.0047
   1832 C           -8.4327     4.9673    11.4231 C       6      r6     0.0084
   1833 C           -8.4336     5.3757     9.9938 C       5      r5    -0.0008
   1834 C           -7.3379     5.6020     9.1062 C       6      r6    -0.0024
   1835 C           -7.3589     5.4940    12.2686 C       6      r6     0.0009
   1836 C           -7.0831     6.9350    12.3323 C       6      r6     0.0012
   1837 C           -6.6021     7.8393    11.2850 C       5      r5    -0.0016
   1838 C           -5.8611     7.4733    10.0767 C       6      r6    -0.0024
   1839 C           -5.8250     6.1278     9.3899 C       6      r6     0.0000
   1840 C           -5.3628     8.6772     9.6109 C       6      r6    -0.0017
   1841 C           -5.0130     5.3200    10.5283 C       6      r6     0.0010
   1842 C           -3.7875     5.8530    11.0495 C       6      r6    -0.0005
   1843 C           -3.0610     6.8400    10.3278 C       0      r0     0.0020
   1844 C           -2.9001     4.7662    11.7873 C       6      r6     0.0027
   1845 C           -2.1152     7.7401     9.8318 C       7      r7     0.0003
   1846 C           -0.9926     4.6115     9.4131 C       6      r6     0.0004
   1847 C           -0.8852     7.6630    10.6878 C       6      r6    -0.0023
   1848 C           -0.7183     8.6562    11.6643 C       6      r6    -0.0002
   1849 C            0.0468     5.3702    10.0829 C       6      r6    -0.0019
   1850 C            0.1657     6.7204    10.5692 C       6      r6    -0.0043
   1851 C            1.1272     4.6680    10.7415 C       6      r6    -0.0016
   1852 C            1.2894     6.8985    11.3815 C       6      r6    -0.0027
   1853 C            1.5788     8.0918    12.0778 C       6      r6    -0.0083
   1854 C            1.9310     5.6662    11.4222 C       6      r6    -0.0030
   1855 C            3.0033     5.5573    12.3577 C       6      r6    -0.0035
   1856 C            4.0172     6.5260     8.7873 C       6      r6     0.0024
   1857 C            4.2560     7.9641     8.7348 C       6      r6     0.0101
   1858 C            5.1821     5.7469     9.1534 C       6      r6     0.0120
   1859 C            5.4105     8.4260     9.3433 C       6      r6     0.0220
   1860 C            6.0562     7.5872    10.4071 C       6      r6     0.0094
   1861 C            5.9451     6.1988    10.3480 C       6      r6     0.0037
   1862 C            6.9395     5.3944    11.1687 C       6      r6     0.0083
   1863 C            7.1851     8.3821    10.9840 C       5      r5     0.0081
   1864 C           11.0972     4.4434     8.5923 C       5      r5    -0.0020
   1865 C           10.8686     6.4360    10.3773 C       5      r5     0.0023
   1866 C           10.9805     7.8979    10.2400 C       5      r5    -0.0004
   1867 C           11.0955     5.8352     9.0083 C       5      r5    -0.0014
   1868 C           11.8266     8.1176     9.0622 C       5      r5     0.0235
   1869 C           11.9436     6.0497    11.1981 C       0      r0    -0.0004
   1870 C           13.0533     5.6896    11.7469 C       7      r7     0.0100
   1871 C          -13.7024     9.5044     9.1787 C       5      r5     0.2659
   1872 C          -13.3601    10.3433    10.2265 C       6      r6    -0.0584
   1873 C          -11.9943    10.5928    10.7614 C       6      r6     0.0430
   1874 C          -12.0395    11.1735    12.1165 C       6      r6    -0.0057
   1875 C          -12.0793    12.6793    12.0977 C       7      r7    -0.0030
   1876 C          -11.0262    10.9325     8.4589 C       5      r5    -0.0449
   1877 C          -10.9483    11.1173     9.9513 C       7      r7     0.0117
   1878 C           -9.7667    12.5397    11.7395 C       6      r6    -0.0027
   1879 C           -9.7679    11.6119    10.6766 C       7      r7    -0.0038
   1880 C           -9.1590    12.7748     8.0311 C       7      r7     0.0340
   1881 C           -9.1475     8.8208    11.1640 C       6      r6    -0.0364
   1882 C           -8.4483    11.0191    10.5460 C       7      r7    -0.0010
   1883 C           -8.0933     9.8630    11.4481 C       6      r6     0.0028
   1884 C           -8.0769    10.9160     9.1621 C       5      r5     0.0059
   1885 C           -6.6970     9.2756    11.2752 C       5      r5    -0.0043
   1886 C           -5.7495     9.8473    10.3604 C       6      r6    -0.0054
   1887 C           -5.1681    11.1514    10.0952 C       6      r6     0.0002
   1888 C           -4.7788    11.1999   -12.5160 C       7      r7     0.0036
   1889 C           -4.9601    11.2118     8.5898 C       6      r6    -0.0026
   1890 C           -4.8093    11.9561    11.2734 C       0      r0    -0.0025
   1891 C           -3.8986    10.1016   -12.5015 C       5      r5     0.0020
   1892 C           -2.8767     9.7176    11.5817 C       5      r5    -0.0024
   1893 C           -2.6708    10.1681    10.2605 C       6      r6    -0.0000
   1894 C           -2.5299    12.6570    10.7819 C       6      r6     0.0098
   1895 C           -2.1379     9.1702     9.3971 C       6      r6     0.0014
   1896 C           -2.1187    11.4492    10.0936 C       6      r6     0.0108
   1897 C           -1.9604     8.9229    12.2442 C       5      r5     0.0025
   1898 C           -1.1693     9.6787     8.3989 C       6      r6     0.0023
   1899 C           -0.8593    11.6784     9.5681 C       6      r6     0.0373
   1900 C           -0.2138    10.7488     8.7162 C       6      r6    -0.0001
   1901 C           -0.2276    12.8654    10.1931 C       5      r5     0.0027
   1902 C            0.4837     8.9787    12.3137 C       6      r6    -0.0038
   1903 C            0.5850    12.3410    11.4937 C       0      r0    -0.0037
   1904 C            1.6288    11.6180    11.0903 C       0      r0     0.0027
   1905 C            2.4866    11.1047    10.4950 C       0      r0     0.0018
   1906 C            3.4754    10.7900     9.5709 C       0      r0    -0.0026
   1907 C            4.6598    11.7077     9.6752 C       7      r7     0.0003
   1908 C            5.7300    12.4682    10.4147 C       7      r7     0.0070
   1909 C            6.2277     9.5742     8.8767 C       5      r5     0.0382
   1910 C            7.1312    12.0581    10.1578 C       7      r7     0.0007
   1911 C            7.1543     9.4752     9.9844 C       5      r5     0.0047
   1912 C            7.6335    10.7350    10.5776 C       5      r5    -0.0029
   1913 C            7.6256     8.8464    12.2593 C       5      r5    -0.0063
   1914 C            7.7728    10.2790    11.9835 C       5      r5     0.0017
   1915 C            9.3125    12.0612    12.4265 C       6      r6    -0.0039
   1916 C           11.3445     8.8908    11.2597 C       6      r6     0.0016
   1917 C           11.6560     8.7239   -12.3640 C       6      r6     0.0007
   1918 C           12.3321     9.6903    10.5833 C       6      r6     0.0007
   1919 C           12.8114     9.1327     9.3744 C       5      r5    -0.0428
   1920 C           13.4386    10.3766    11.2149 C       6      r6     0.0045
   1921 C           13.7846     9.9259   -12.5052 C       6      r6     0.0060
   1922 B           13.9472   -12.9860    12.5308 B       8     BOX     0.0000
   1923 B          -13.9472   -12.9860    12.5308 B       8     BOX     0.0000
   1924 B          -13.9472    12.9860    12.5308 B       8     BOX     0.0000
   1925 B           13.9472    12.9860    12.5308 B       8     BOX     0.0000
   1926 B           13.9472   -12.9860   -12.5308 B       8     BOX     0.0000
   1927 B          -13.9472   -12.9860   -12.5308 B       8     BOX     0.0000
   1928 B          -13.9472    12.9860   -12.5308 B       8     BOX     0.0000
   1929 B           13.9472    12.9860   -12.5308 B       8     BOX     0.0000
@<TRIPOS>BOND
     1      2      4      1
     2      3      5      1
     3      3     63      1
     4      4      5      1
     5      4      6      1
     6      5      7      1
     7      6      8      1
     8      7     10      1
     9      7     66      1
    10      8      9      1
    11      9     10      1
    12      9    337      1
    13     10     11      1
    14     11     13      1
    15     11     70      1
    16     12     14      1
    17     12   1606      1
    18     13     16      1
    19     13    342      1
    20     14   1612      1
    21     15     17      1
    22     16     18      1
    23     16     74      1
    24     17     19      1
    25     17     21      1
    26     18     20      1
    27     18     23      1
    28     19     20      1
    29     20    345      1
    30     21     24      1
    31     22     24      1
    32     22     80      1
    33     23     78      1
    34     23    346      1
    35     24     25      1
    36     25     26      1
    37     25     27      1
    38     26     28      1
    39     27     29      1
    40     27     84      1
    41     28     29      1
    42     28     30      1
    43     29     32      1
    44     30     33      1
    45     31     34      1
    46     32     35      1
    47     32     90      1
    48     33     36      1
    49     34     37      1
    50     35     37      1
    51     35     38      1
    52     36     37      1
    53     36     39      1
    54     37     40      1
    55     38     41      1
    56     38     94      1
    57     39     44      1
    58     40     42      1
    59     40     43      1
    60     40     44      1
    61     41     43      1
    62     41     95      1
    63     43     45      1
    64     44     46      1
    65     45     99      1
    66     46     47      1
    67     47     48      1
    68     47    360      1
    69     48     49      1
    70     48    102      1
    71     49     50      1
    72     49     51      1
    73     50     52      1
    74     51     53      1
    75     51    104      1
    76     52     53      1
    77     52     54      1
    78     54     56      1
    79     55     57      1
    80     55    370      1
    81     56     58      1
    82     57     58      1
    83     57     59      1
    84     59    111      1
    85     59    112      1
    86     60     61      1
    87     60     62      1
    88     61     64      1
    89     61    114      1
    90     62     63      1
    91     62     65      1
    92     63     66      1
    93     64     65      1
    94     64    120      1
    95     65     67      1
    96     66     68      1
    97     67     68      1
    98     67     69      1
    99     68     70      1
   100     69     71      1
   101     69    123      1
   102     70     72      1
   103     71     73      1
   104     71    132      1
   105     72     73      1
   106     72     74      1
   107     73     75      1
   108     74     78      1
   109     75     76      1
   110     75     77      1
   111     75    135      1
   112     76     79      1
   113     76    138      1
   114     76    386      1
   115     77     80      1
   116     78     79      1
   117     78     80      1
   118     79     81      1
   119     79    391      1
   120     80     82      1
   121     81     82      1
   122     81     83      1
   123     82     84      1
   124     83     85      1
   125     83    393      1
   126     84     87      1
   127     85     86      1
   128     85    143      1
   129     85    146      1
   130     86     88      1
   131     86     89      1
   132     87     88      1
   133     87     90      1
   134     88     91      1
   135     89     93      1
   136     90     94      1
   137     91     92      1
   138     91     93      1
   139     92    147      1
   140     92    405      1
   141     93    150      1
   142     94    406      1
   143     95     97      1
   144     95    409      1
   145     96    100      1
   146     97    102      1
   147     97    413      1
   148     98     99      1
   149     98    101      1
   150     99    102      1
   151    100    101      1
   152    100    156      1
   153    101    103      1
   154    102    104      1
   155    103    105      1
   156    103    160      1
   157    104    105      1
   158    105    106      1
   159    106    107      1
   160    106    108      1
   161    107    111      1
   162    107    422      1
   163    108    110      1
   164    108    167      1
   165    109    112      1
   166    110    113      1
   167    111    427      1
   168    112    113      1
   169    115    117      1
   170    115    170      1
   171    115    433      1
   172    116    118      1
   173    116    174      1
   174    116    177      1
   175    117    118      1
   176    117    122      1
   177    118    119      1
   178    119    120      1
   179    119    121      1
   180    120    123      1
   181    121    179      1
   182    122    125      1
   183    122    378      1
   184    124    126      1
   185    124    177      1
   186    124    181      1
   187    125    126      1
   188    125    127      1
   189    126    128      1
   190    127    131      1
   191    127    384      1
   192    128    129      1
   193    128    131      1
   194    129    181      1
   195    129    186      1
   196    130    132      1
   197    130    133      1
   198    131    134      1
   199    132    135      1
   200    133    136      1
   201    134    137      1
   202    134    138      1
   203    135    139      1
   204    136    140      1
   205    136    186      1
   206    136    189      1
   207    137    140      1
   208    137    442      1
   209    138    445      1
   210    139    141      1
   211    140    142      1
   212    141    143      1
   213    142    144      1
   214    142    193      1
   215    143    144      1
   216    144    145      1
   217    145    146      1
   218    145    451      1
   219    146    147      1
   220    147    457      1
   221    148    151      1
   222    148    200      1
   223    148    205      1
   224    149    151      1
   225    149    458      1
   226    149    463      1
   227    151    152      1
   228    152    154      1
   229    153    154      1
   230    153    463      1
   231    153    467      1
   232    154    155      1
   233    155    156      1
   234    155    157      1
   235    156    159      1
   236    157    161      1
   237    157    212      1
   238    158    160      1
   239    158    470      1
   240    158    475      1
   241    159    162      1
   242    160    163      1
   243    161    162      1
   244    161    219      1
   245    162    163      1
   246    162    165      1
   247    163    164      1
   248    163    167      1
   249    164    475      1
   250    164    479      1
   251    165    166      1
   252    166    219      1
   253    166    222      1
   254    167    169      1
   255    171    172      1
   256    171    225      1
   257    172    173      1
   258    173    174      1
   259    173    175      1
   260    174    176      1
   261    175    178      1
   262    175    229      1
   263    176    178      1
   264    176    179      1
   265    177    487      1
   266    178    180      1
   267    180    183      1
   268    181    182      1
   269    182    184      1
   270    182    492      1
   271    183    184      1
   272    183    234      1
   273    183    236      1
   274    184    185      1
   275    185    186      1
   276    185    187      1
   277    187    189      1
   278    187    190      1
   279    188    190      1
   280    188    239      1
   281    188    242      1
   282    190    192      1
   283    191    192      1
   284    191    501      1
   285    191    502      1
   286    192    195      1
   287    193    449      1
   288    193    502      1
   289    194    195      1
   290    195    196      1
   291    196    197      1
   292    196    199      1
   293    197    198      1
   294    197    509      1
   295    198    249      1
   296    198    251      1
   297    199    200      1
   298    199    202      1
   299    200    201      1
   300    201    458      1
   301    201    509      1
   302    202    203      1
   303    202    204      1
   304    203    207      1
   305    203    251      1
   306    204    206      1
   307    206    207      1
   308    207    255      1
   309    208    255      1
   310    208    516      1
   311    208    520      1
   312    209    210      1
   313    210    212      1
   314    211    213      1
   315    211    264      1
   316    211    520      1
   317    212    214      1
   318    213    215      1
   319    213    524      1
   320    214    215      1
   321    214    216      1
   322    215    218      1
   323    216    219      1
   324    216    220      1
   325    217    218      1
   326    217    220      1
   327    217    269      1
   328    218    272      1
   329    220    221      1
   330    221    222      1
   331    221    223      1
   332    223    224      1
   333    224    276      1
   334    225    227      1
   335    225    591      1
   336    226    228      1
   337    226    282      1
   338    227    228      1
   339    227    229      1
   340    228    230      1
   341    229    231      1
   342    230    232      1
   343    230    284      1
   344    231    232      1
   345    231    234      1
   346    232    233      1
   347    233    545      1
   348    233    604      1
   349    234    235      1
   350    235    493      1
   351    235    545      1
   352    236    239      1
   353    237    238      1
   354    237    294      1
   355    238    239      1
   356    238    240      1
   357    240    241      1
   358    240    298      1
   359    241    551      1
   360    241    555      1
   361    242    501      1
   362    242    551      1
   363    243    246      1
   364    243    300      1
   365    244    245      1
   366    245    247      1
   367    246    248      1
   368    246    303      1
   369    247    248      1
   370    247    249      1
   371    248    250      1
   372    249    557      1
   373    249    562      1
   374    250    562      1
   375    250    614      1
   376    251    514      1
   377    251    568      1
   378    252    253      1
   379    252    310      1
   380    253    257      1
   381    254    255      1
   382    254    256      1
   383    254    568      1
   384    255    260      1
   385    256    573      1
   386    257    258      1
   387    257    259      1
   388    258    261      1
   389    258    312      1
   390    259    260      1
   391    259    263      1
   392    260    264      1
   393    261    262      1
   394    261    265      1
   395    262    266      1
   396    262    573      1
   397    263    267      1
   398    264    268      1
   399    265    318      1
   400    266    318      1
   401    266    632      1
   402    267    268      1
   403    267    269      1
   404    270    271      1
   405    270    318      1
   406    270    321      1
   407    271    273      1
   408    271    583      1
   409    272    273      1
   410    272    274      1
   411    273    275      1
   412    274    532      1
   413    274    588      1
   414    275    276      1
   415    275    277      1
   416    277    326      1
   417    278    280      1
   418    279    282      1
   419    280    281      1
   420    281    283      1
   421    281    592      1
   422    282    283      1
   423    282    285      1
   424    283    284      1
   425    283    286      1
   426    284    597      1
   427    284    600      1
   428    285    288      1
   429    286    287      1
   430    286    288      1
   431    287    599      1
   432    288    290      1
   433    289   1878      1
   434    290    291      1
   435    290    292      1
   436    291    293      1
   437    292    294      1
   438    292    295      1
   439    293    295      1
   440    294    298      1
   441    295    296      1
   442    295   1888      1
   443    296    297      1
   444    296    299      1
   445    297    607      1
   446    298    299      1
   447    298    300      1
   448    299    608      1
   449    300   1891      1
   450    301    302      1
   451    302    304      1
   452    303    304      1
   453    303    305      1
   454    304    614      1
   455    305    308      1
   456    306    307      1
   457    307    308      1
   458    308    309      1
   459    309    310      1
   460    309    311      1
   461    310    312      1
   462    311    313      1
   463    312    313      1
   464    313    314      1
   465    314    315      1
   466    315    316      1
   467    315    317      1
   468    317    319      1
   469    317    630      1
   470    319    322      1
   471    320    323      1
   472    321    323      1
   473    321   1917      1
   474    322    324      1
   475    322    325      1
   476    323    325      1
   477    324    637      1
   478    325    327      1
   479    326   1917      1
   480    326   1921      1
   481    327    328      1
   482    328    637      1
   483    330    331      1
   484    330    332      1
   485    331    333      1
   486    332    334      1
   487    332    374      1
   488    333    335      1
   489    333    643      1
   490    334    335      1
   491    334    377      1
   492    335    646      1
   493    336    337      1
   494    336    338      1
   495    337    342      1
   496    338    340      1
   497    339    341      1
   498    339    381      1
   499    339    650      1
   500    340    341      1
   501    340    651      1
   502    341    342      1
   503    343    344      1
   504    344    659      1
   505    345    347      1
   506    345    348      1
   507    346    347      1
   508    346    392      1
   509    347    350      1
   510    348    351      1
   511    349    394      1
   512    349    660      1
   513    349    663      1
   514    350    351      1
   515    350    352      1
   516    352    353      1
   517    352    398      1
   518    353    663      1
   519    353    667      1
   520    354    356      1
   521    354    667      1
   522    355    356      1
   523    355    407      1
   524    355    672      1
   525    356    357      1
   526    357    358      1
   527    357    359      1
   528    358    361      1
   529    359    360      1
   530    359    411      1
   531    360    362      1
   532    361    362      1
   533    361    363      1
   534    363    365      1
   535    364    366      1
   536    364    418      1
   537    364    677      1
   538    365    367      1
   539    365    681      1
   540    366    367      1
   541    366    368      1
   542    367    369      1
   543    368    370      1
   544    368    422      1
   545    369    371      1
   546    370    371      1
   547    372    373      1
   548    372    375      1
   549    373    429      1
   550    373    433      1
   551    374    375      1
   552    375    376      1
   553    376    377      1
   554    376    379      1
   555    377    695      1
   556    378    380      1
   557    378    433      1
   558    379    380      1
   559    379    381      1
   560    380    382      1
   561    381    383      1
   562    382    383      1
   563    382    384      1
   564    383    385      1
   565    384    386      1
   566    385    387      1
   567    385    388      1
   568    386    388      1
   569    387    389      1
   570    387    702      1
   571    388    390      1
   572    389    390      1
   573    389    709      1
   574    390    391      1
   575    391    392      1
   576    392    396      1
   577    393    395      1
   578    393    445      1
   579    394    396      1
   580    394    712      1
   581    395    397      1
   582    395    448      1
   583    396    397      1
   584    396    398      1
   585    397    399      1
   586    398    400      1
   587    399    400      1
   588    399    401      1
   589    400    402      1
   590    401    404      1
   591    401    405      1
   592    401    457      1
   593    402    403      1
   594    402    407      1
   595    403    404      1
   596    403    717      1
   597    404    408      1
   598    405    406      1
   599    406    409      1
   600    407    410      1
   601    408    464      1
   602    408    721      1
   603    409    410      1
   604    410    411      1
   605    411    414      1
   606    412    413      1
   607    412    415      1
   608    412    470      1
   609    413    414      1
   610    414    417      1
   611    415    416      1
   612    415    472      1
   613    416    417      1
   614    416    727      1
   615    417    418      1
   616    417    419      1
   617    418    730      1
   618    419    420      1
   619    419    421      1
   620    420    423      1
   621    420    477      1
   622    421    422      1
   623    421    424      1
   624    423    424      1
   625    423    425      1
   626    424    426      1
   627    425    787      1
   628    426    427      1
   629    428    431      1
   630    429    430      1
   631    430    432      1
   632    431    432      1
   633    431    485      1
   634    432    434      1
   635    434    435      1
   636    434    436      1
   637    435    694      1
   638    436    437      1
   639    436    750      1
   640    437    438      1
   641    438    439      1
   642    438    440      1
   643    439    441      1
   644    439    752      1
   645    440    442      1
   646    440    496      1
   647    441    443      1
   648    441    759      1
   649    442    443      1
   650    443    444      1
   651    444    445      1
   652    444    447      1
   653    446    447      1
   654    446    759      1
   655    446    761      1
   656    447    448      1
   657    448    452      1
   658    449    451      1
   659    449    506      1
   660    450    454      1
   661    450    506      1
   662    450    821      1
   663    451    453      1
   664    452    455      1
   665    452    764      1
   666    453    454      1
   667    453    456      1
   668    454    511      1
   669    455    456      1
   670    455    768      1
   671    456    457      1
   672    458    459      1
   673    459    461      1
   674    459    511      1
   675    460    461      1
   676    460    768      1
   677    460    772      1
   678    461    462      1
   679    462    463      1
   680    462    465      1
   681    464    465      1
   682    464    466      1
   683    465    467      1
   684    466    468      1
   685    466    772      1
   686    467    470      1
   687    468    469      1
   688    468    775      1
   689    469    471      1
   690    469    522      1
   691    471    472      1
   692    471    473      1
   693    472    474      1
   694    473    475      1
   695    473    476      1
   696    474    477      1
   697    474    778      1
   698    476    478      1
   699    476    525      1
   700    477    783      1
   701    478    479      1
   702    478    531      1
   703    479    480      1
   704    480    481      1
   705    482    862      1
   706    483    484      1
   707    484    485      1
   708    484    487      1
   709    485    486      1
   710    486    488      1
   711    486    793      1
   712    487    490      1
   713    488    489      1
   714    488    538      1
   715    488    798      1
   716    489    490      1
   717    489    491      1
   718    490    492      1
   719    491    493      1
   720    491    543      1
   721    492    493      1
   722    493    494      1
   723    494    495      1
   724    494    497      1
   725    495    498      1
   726    495    544      1
   727    496    497      1
   728    497    499      1
   729    498    499      1
   730    498    553      1
   731    498    809      1
   732    499    500      1
   733    500    503      1
   734    500    504      1
   735    501    557      1
   736    502    503      1
   737    503    506      1
   738    504    505      1
   739    504    507      1
   740    505    557      1
   741    505    559      1
   742    507    817      1
   743    507    823      1
   744    508    512      1
   745    508    563      1
   746    508    823      1
   747    509    510      1
   748    510    513      1
   749    510    514      1
   750    511    513      1
   751    511    829      1
   752    512    566      1
   753    512    887      1
   754    513    515      1
   755    514    516      1
   756    514    566      1
   757    515    517      1
   758    515    834      1
   759    516    517      1
   760    517    518      1
   761    518    519      1
   762    518    521      1
   763    519    522      1
   764    519    836      1
   765    520    521      1
   766    521    523      1
   767    522    523      1
   768    523    525      1
   769    524    526      1
   770    524    577      1
   771    525    527      1
   772    526    527      1
   773    526    528      1
   774    527    529      1
   775    528    530      1
   776    528    582      1
   777    528    846      1
   778    529    531      1
   779    529    532      1
   780    530    533      1
   781    530    851      1
   782    531    534      1
   783    532    535      1
   784    533    586      1
   785    536    537      1
   786    536    591      1
   787    537    597      1
   788    538    862      1
   789    538    866      1
   790    539    540      1
   791    539    598      1
   792    539    863      1
   793    540    542      1
   794    540    603      1
   795    541    542      1
   796    541    543      1
   797    541    866      1
   798    542    870      1
   799    543    544      1
   800    544    804      1
   801    545    547      1
   802    546    547      1
   803    546    548      1
   804    546    605      1
   805    547    549      1
   806    548    550      1
   807    548    870      1
   808    549    551      1
   809    549    552      1
   810    550    554      1
   811    550    929      1
   812    552    553      1
   813    552    554      1
   814    553    873      1
   815    554    556      1
   816    555    556      1
   817    555    608      1
   818    556    558      1
   819    558    560      1
   820    558    561      1
   821    559    560      1
   822    559    563      1
   823    560    562      1
   824    561    564      1
   825    561    610      1
   826    563    881      1
   827    564    565      1
   828    564    881      1
   829    565    569      1
   830    565    616      1
   831    566    567      1
   832    567    568      1
   833    567    569      1
   834    569    570      1
   835    570    571      1
   836    570    572      1
   837    571    887      1
   838    571    891      1
   839    572    574      1
   840    572    622      1
   841    573    575      1
   842    574    575      1
   843    574    627      1
   844    575    576      1
   845    576    577      1
   846    577    579      1
   847    578    581      1
   848    578    954      1
   849    579    581      1
   850    579    582      1
   851    580    581      1
   852    580    583      1
   853    580    632      1
   854    582    586      1
   855    583    584      1
   856    584    588      1
   857    584    590      1
   858    585    587      1
   859    585    589      1
   860    585    963      1
   861    586    589      1
   862    587    590      1
   863    587    635      1
   864    592    593      1
   865    593    594      1
   866    593    596      1
   867    594    595      1
   868    595    911      1
   869    596    597      1
   870    596    598      1
   871    598    911      1
   872    599    600      1
   873    599    601      1
   874    600    604      1
   875    601    602      1
   876    602    603      1
   877    602    917      1
   878    603    605      1
   879    604    605      1
   880    606    607      1
   881    607    609      1
   882    608    609      1
   883    610    613      1
   884    610    934      1
   885    611    612      1
   886    611    935      1
   887    612    613      1
   888    612    615      1
   889    613    617      1
   890    614    616      1
   891    615    618      1
   892    616    617      1
   893    617    619      1
   894    617    620      1
   895    618    619      1
   896    619    621      1
   897    620    622      1
   898    620    941      1
   899    621    623      1
   900    621    624      1
   901    622    623      1
   902    623    625      1
   903    624    626      1
   904    625    626      1
   905    625    629      1
   906    626    628      1
   907    627    629      1
   908    627    954      1
   909    628    630      1
   910    629    631      1
   911    630    631      1
   912    631    632      1
   913    633    634      1
   914    633    961      1
   915    634    636      1
   916    635    636      1
   917    635    964      1
   918    636    637      1
   919    638    639      1
   920    638    640      1
   921    639    641      1
   922    640    644      1
   923    641    642      1
   924    641    645      1
   925    642    646      1
   926    642    688      1
   927    644    645      1
   928    644    914      1
   929    645    647      1
   930    646    647      1
   931    646    695      1
   932    647    648      1
   933    648    649      1
   934    648    651      1
   935    650    651      1
   936    650    695      1
   937    650    700      1
   938    652    653      1
   939    652    657      1
   940    653    655      1
   941    654    656      1
   942    654    704      1
   943    654    972      1
   944    655    656      1
   945    655    659      1
   946    656    658      1
   947    657    658      1
   948    658    976      1
   949    659    660      1
   950    660    661      1
   951    661    662      1
   952    661    713      1
   953    662    663      1
   954    662    664      1
   955    664    665      1
   956    664    981      1
   957    665    668      1
   958    666    667      1
   959    667    669      1
   960    668    669      1
   961    668    670      1
   962    669    671      1
   963    670    673      1
   964    670    987      1
   965    671    672      1
   966    671    674      1
   967    672    718      1
   968    673    674      1
   969    673    992      1
   970    674    675      1
   971    675    722      1
   972    675    993      1
   973    676    677      1
   974    676    730      1
   975    676    733      1
   976    677    679      1
   977    678    680      1
   978    678    683      1
   979    678   1001      1
   980    679    680      1
   981    679    681      1
   982    680    682      1
   983    681    960      1
   984    682    734      1
   985    682   1007      1
   986    683    960      1
   987    684   1007      1
   988    685    688      1
   989    686    689      1
   990    686    690      1
   991    687    689      1
   992    688    689      1
   993    689    692      1
   994    690    691      1
   995    690    742      1
   996    691    693      1
   997    691    747      1
   998    692    694      1
   999    692    696      1
  1000    693   1014      1
  1001    693   1018      1
  1002    694    697      1
  1003    695    696      1
  1004    696    698      1
  1005    697    699      1
  1006    697    751      1
  1007    698    699      1
  1008    698    700      1
  1009    699    701      1
  1010    700    702      1
  1011    701    703      1
  1012    701    753      1
  1013    702    704      1
  1014    703    705      1
  1015    703    706      1
  1016    704    705      1
  1017    705    707      1
  1018    706    708      1
  1019    706    757      1
  1020    707    710      1
  1021    707   1033      1
  1022    708    709      1
  1023    708    711      1
  1024    709    712      1
  1025    710    714      1
  1026    710    715      1
  1027    711    714      1
  1028    711    764      1
  1029    712    713      1
  1030    713    715      1
  1031    714    765      1
  1032    715    716      1
  1033    716    981      1
  1034    717    718      1
  1035    717    721      1
  1036    718    720      1
  1037    719    720      1
  1038    719   1044      1
  1039    719   1052      1
  1040    720    722      1
  1041    721    723      1
  1042    722    725      1
  1043    723    724      1
  1044    723    727      1
  1045    724    725      1
  1046    724    726      1
  1047    725    728      1
  1048    725    729      1
  1049    726    731      1
  1050    726    774      1
  1051    727    728      1
  1052    728    730      1
  1053    729    732      1
  1054    729    733      1
  1055    729   1056      1
  1056    731    732      1
  1057    731    779      1
  1058    732   1057      1
  1059    733    734      1
  1060    734   1059      1
  1061    735    736      1
  1062    735    779      1
  1063    735   1057      1
  1064    736    786      1
  1065    736   1064      1
  1066    737    786      1
  1067    737    787      1
  1068    738   1067      1
  1069    739    740      1
  1070    739    741      1
  1071    740    742      1
  1072    741    743      1
  1073    741    789      1
  1074    742    744      1
  1075    743    744      1
  1076    743    745      1
  1077    744    746      1
  1078    745    748      1
  1079    745    797      1
  1080    746    747      1
  1081    746    749      1
  1082    747   1020      1
  1083    748    749      1
  1084    748   1135      1
  1085    749   1077      1
  1086    750    751      1
  1087    750    752      1
  1088    751    753      1
  1089    752    754      1
  1090    753    755      1
  1091    754    756      1
  1092    754    805      1
  1093    755    756      1
  1094    755    757      1
  1095    756    758      1
  1096    757    759      1
  1097    758    760      1
  1098    758    810      1
  1099    760    762      1
  1100    760   1086      1
  1101    761    763      1
  1102    761    764      1
  1103    762    763      1
  1104    762    820      1
  1105    763    821      1
  1106    764    766      1
  1107    765    766      1
  1108    765   1094      1
  1109    766    767      1
  1110    767    768      1
  1111    767    770      1
  1112    769    770      1
  1113    769   1096      1
  1114    769   1098      1
  1115    770    771      1
  1116    771    772      1
  1117    771    773      1
  1118    773    774      1
  1119    773   1104      1
  1120    774   1109      1
  1121    775    776      1
  1122    775    839      1
  1123    776    777      1
  1124    776    778      1
  1125    777    844      1
  1126    777   1112      1
  1127    778    780      1
  1128    779    780      1
  1129    780    782      1
  1130    781    785      1
  1131    781    847      1
  1132    782    783      1
  1133    782    784      1
  1134    783    787      1
  1135    784    786      1
  1136    784    788      1
  1137    785    788      1
  1138    785    854      1
  1139    789    791      1
  1140    790    792      1
  1141    790   1128      1
  1142    791    793      1
  1143    792    794      1
  1144    792    858      1
  1145    793    795      1
  1146    794    796      1
  1147    794   1130      1
  1148    795    797      1
  1149    795    798      1
  1150    796    799      1
  1151    796    867      1
  1152    797    800      1
  1153    798    801      1
  1154    799    800      1
  1155    799    803      1
  1156    800    802      1
  1157    800   1135      1
  1158    801    802      1
  1159    801    804      1
  1160    802    805      1
  1161    803    806      1
  1162    803   1187      1
  1163    804    807      1
  1164    805    808      1
  1165    806    807      1
  1166    806    871      1
  1167    807    809      1
  1168    808    809      1
  1169    808    810      1
  1170    809    812      1
  1171    810    814      1
  1172    811    813      1
  1173    811    871      1
  1174    811   1205      1
  1175    812    813      1
  1176    812    814      1
  1177    812    815      1
  1178    813    816      1
  1179    814    817      1
  1180    815    873      1
  1181    815    876      1
  1182    816    818      1
  1183    816   1145      1
  1184    817    821      1
  1185    818    820      1
  1186    818    822      1
  1187    819    822      1
  1188    819    876      1
  1189    819   1207      1
  1190    820    825      1
  1191    821    824      1
  1192    822    826      1
  1193    823    824      1
  1194    824    829      1
  1195    825    827      1
  1196    825   1096      1
  1197    826    827      1
  1198    826    828      1
  1199    827    830      1
  1200    828    831      1
  1201    828    882      1
  1202    829    832      1
  1203    830    831      1
  1204    830    832      1
  1205    831    833      1
  1206    832    834      1
  1207    833    887      1
  1208    833    890      1
  1209    834    836      1
  1210    835    837      1
  1211    835   1156      1
  1212    835   1159      1
  1213    836    839      1
  1214    837    838      1
  1215    837   1157      1
  1216    838    840      1
  1217    838    890      1
  1218    839    841      1
  1219    840    841      1
  1220    840    843      1
  1221    841    845      1
  1222    842    844      1
  1223    842   1159      1
  1224    842   1164      1
  1225    843    846      1
  1226    843    898      1
  1227    844    845      1
  1228    844   1167      1
  1229    845    847      1
  1230    846    848      1
  1231    847    848      1
  1232    848    851      1
  1233    849    850      1
  1234    849   1166      1
  1235    849   1170      1
  1236    850    852      1
  1237    850    901      1
  1238    851    853      1
  1239    852    855      1
  1240    852    907      1
  1241    853    854      1
  1242    853    856      1
  1243    855   1173      1
  1244    857    859      1
  1245    857    860      1
  1246    858    861      1
  1247    859    861      1
  1248    859    862      1
  1249    860    863      1
  1250    860    908      1
  1251    861    864      1
  1252    863    865      1
  1253    864    865      1
  1254    864    867      1
  1255    865    866      1
  1256    867   1185      1
  1257    868    912      1
  1258    868    916      1
  1259    868   1184      1
  1260    869    916      1
  1261    869    923      1
  1262    869    924      1
  1263    870    923      1
  1264    871   1195      1
  1265    872    874      1
  1266    872    931      1
  1267    873    875      1
  1268    874    875      1
  1269    874    929      1
  1270    875    877      1
  1271    876    877      1
  1272    877    878      1
  1273    878    879      1
  1274    878    880      1
  1275    879    938      1
  1276    880    882      1
  1277    880   1209      1
  1278    881    883      1
  1279    882    885      1
  1280    883    885      1
  1281    883    887      1
  1282    884    886      1
  1283    884    942      1
  1284    884   1211      1
  1285    885    886      1
  1286    886    888      1
  1287    888    889      1
  1288    888    944      1
  1289    889    892      1
  1290    889    949      1
  1291    890    891      1
  1292    891    892      1
  1293    892    894      1
  1294    893    894      1
  1295    893   1219      1
  1296    893   1220      1
  1297    894    896      1
  1298    895    896      1
  1299    895    952      1
  1300    895    954      1
  1301    896    899      1
  1302    897    898      1
  1303    897   1166      1
  1304    897   1220      1
  1305    898    899      1
  1306    898    901      1
  1307    899    900      1
  1308    900    902      1
  1309    900    903      1
  1310    901    902      1
  1311    902    904      1
  1312    903    905      1
  1313    903    959      1
  1314    903    963      1
  1315    904    906      1
  1316    904    907      1
  1317    905    906      1
  1318    906   1230      1
  1319    908    910      1
  1320    908    966      1
  1321    909    912      1
  1322    909    966      1
  1323    909   1178      1
  1324    910    911      1
  1325    910    913      1
  1326    912    913      1
  1327    913    915      1
  1328    915    916      1
  1329    915    918      1
  1330    917    918      1
  1331    917    920      1
  1332    918    922      1
  1333    919    921      1
  1334    919   1242      1
  1335    921    925      1
  1336    922    923      1
  1337    922    926      1
  1338    924   1191      1
  1339    924   1245      1
  1340    925    926      1
  1341    925   1247      1
  1342    926    927      1
  1343    927    928      1
  1344    927    930      1
  1345    929    930      1
  1346    930    932      1
  1347    931   1251      1
  1348    932    933      1
  1349    932    934      1
  1350    933    935      1
  1351    934    936      1
  1352    935    937      1
  1353    936    937      1
  1354    936    938      1
  1355    937    939      1
  1356    938   1259      1
  1357    939   1261      1
  1358    940    941      1
  1359    940    945      1
  1360    941    944      1
  1361    942    943      1
  1362    942   1267      1
  1363    943    944      1
  1364    943    946      1
  1365    945    947      1
  1366    946    948      1
  1367    946   1269      1
  1368    947    948      1
  1369    947    950      1
  1370    948    951      1
  1371    949    952      1
  1372    949   1271      1
  1373    950    953      1
  1374    951    952      1
  1375    951    953      1
  1376    953    955      1
  1377    955    957      1
  1378    956    957      1
  1379    956   1275      1
  1380    957    958      1
  1381    958    961      1
  1382    958    962      1
  1383    959    962      1
  1384    959   1279      1
  1385    961    964      1
  1386    962    965      1
  1387    963    964      1
  1388    965   1282      1
  1389    967    968      1
  1390    967   1013      1
  1391    967   1019      1
  1392    968    969      1
  1393    968   1293      1
  1394    969    970      1
  1395    971    973      1
  1396    971   1300      1
  1397    972    974      1
  1398    972   1027      1
  1399    973    974      1
  1400    973    975      1
  1401    974    976      1
  1402    975    977      1
  1403    975   1304      1
  1404    976    977      1
  1405    977    978      1
  1406    979   1040      1
  1407    979   1314      1
  1408    979   1368      1
  1409    980    982      1
  1410    981    983      1
  1411    982    983      1
  1412    983    984      1
  1413    984    985      1
  1414    984   1040      1
  1415    985    989      1
  1416    985   1045      1
  1417    986    988      1
  1418    986   1321      1
  1419    987    988      1
  1420    988    989      1
  1421    989    990      1
  1422    990    991      1
  1423    990   1326      1
  1424    991    993      1
  1425    991   1051      1
  1426    992    994      1
  1427    993    994      1
  1428    993    996      1
  1429    994    995      1
  1430    995    997      1
  1431    995    998      1
  1432    996   1000      1
  1433    996   1056      1
  1434    997    999      1
  1435    997   1332      1
  1436    998   1001      1
  1437    999   1000      1
  1438    999   1002      1
  1439   1000   1003      1
  1440   1001   1005      1
  1441   1002   1004      1
  1442   1002   1338      1
  1443   1003   1059      1
  1444   1003   1063      1
  1445   1004   1005      1
  1446   1006   1008      1
  1447   1006   1063      1
  1448   1006   1066      1
  1449   1007   1008      1
  1450   1008   1069      1
  1451   1009   1012      1
  1452   1010   1015      1
  1453   1010   1347      1
  1454   1010   1400      1
  1455   1011   1013      1
  1456   1011   1014      1
  1457   1012   1013      1
  1458   1012   1016      1
  1459   1015   1016      1
  1460   1015   1073      1
  1461   1016   1017      1
  1462   1017   1019      1
  1463   1017   1022      1
  1464   1018   1020      1
  1465   1018   1023      1
  1466   1019   1023      1
  1467   1020   1024      1
  1468   1021   1022      1
  1469   1021   1073      1
  1470   1021   1410      1
  1471   1022   1357      1
  1472   1023   1025      1
  1473   1024   1026      1
  1474   1024   1079      1
  1475   1025   1026      1
  1476   1025   1027      1
  1477   1026   1028      1
  1478   1027   1031      1
  1479   1028   1029      1
  1480   1028   1083      1
  1481   1029   1030      1
  1482   1029   1360      1
  1483   1030   1032      1
  1484   1030   1359      1
  1485   1031   1032      1
  1486   1031   1033      1
  1487   1032   1034      1
  1488   1033   1035      1
  1489   1034   1035      1
  1490   1034   1036      1
  1491   1035   1087      1
  1492   1036   1037      1
  1493   1036   1368      1
  1494   1037   1038      1
  1495   1037   1039      1
  1496   1038   1041      1
  1497   1038   1091      1
  1498   1039   1040      1
  1499   1039   1042      1
  1500   1041   1042      1
  1501   1041   1094      1
  1502   1042   1043      1
  1503   1043   1044      1
  1504   1043   1045      1
  1505   1044   1046      1
  1506   1045   1048      1
  1507   1046   1098      1
  1508   1046   1104      1
  1509   1047   1049      1
  1510   1047   1100      1
  1511   1048   1049      1
  1512   1048   1051      1
  1513   1049   1053      1
  1514   1050   1052      1
  1515   1050   1104      1
  1516   1050   1107      1
  1517   1051   1054      1
  1518   1052   1054      1
  1519   1053   1055      1
  1520   1053   1385      1
  1521   1054   1056      1
  1522   1055   1107      1
  1523   1055   1110      1
  1524   1057   1061      1
  1525   1058   1060      1
  1526   1058   1118      1
  1527   1058   1391      1
  1528   1059   1061      1
  1529   1060   1061      1
  1530   1060   1062      1
  1531   1062   1063      1
  1532   1062   1394      1
  1533   1064   1065      1
  1534   1064   1067      1
  1535   1065   1068      1
  1536   1065   1119      1
  1537   1066   1397      1
  1538   1067   1069      1
  1539   1070   1071      1
  1540   1070   1126      1
  1541   1071   1072      1
  1542   1071   1400      1
  1543   1072   1074      1
  1544   1072   1405      1
  1545   1073   1074      1
  1546   1074   1075      1
  1547   1075   1076      1
  1548   1075   1408      1
  1549   1076   1078      1
  1550   1076   1137      1
  1551   1077   1078      1
  1552   1077   1079      1
  1553   1078   1080      1
  1554   1078   1135      1
  1555   1079   1081      1
  1556   1080   1082      1
  1557   1080   1141      1
  1558   1081   1082      1
  1559   1081   1083      1
  1560   1082   1084      1
  1561   1083   1085      1
  1562   1084   1085      1
  1563   1084   1086      1
  1564   1085   1087      1
  1565   1086   1088      1
  1566   1087   1091      1
  1567   1088   1089      1
  1568   1088   1145      1
  1569   1089   1090      1
  1570   1089   1146      1
  1571   1090   1092      1
  1572   1090   1422      1
  1573   1091   1092      1
  1574   1092   1093      1
  1575   1093   1095      1
  1576   1093   1097      1
  1577   1094   1098      1
  1578   1095   1149      1
  1579   1095   1426      1
  1580   1096   1099      1
  1581   1097   1098      1
  1582   1097   1101      1
  1583   1099   1101      1
  1584   1099   1149      1
  1585   1099   1154      1
  1586   1100   1102      1
  1587   1100   1375      1
  1588   1101   1103      1
  1589   1102   1103      1
  1590   1102   1428      1
  1591   1103   1105      1
  1592   1105   1106      1
  1593   1105   1434      1
  1594   1106   1154      1
  1595   1106   1158      1
  1596   1107   1108      1
  1597   1108   1109      1
  1598   1108   1111      1
  1599   1109   1112      1
  1600   1110   1111      1
  1601   1110   1391      1
  1602   1111   1114      1
  1603   1112   1113      1
  1604   1113   1114      1
  1605   1113   1115      1
  1606   1114   1116      1
  1607   1115   1117      1
  1608   1115   1167      1
  1609   1116   1117      1
  1610   1116   1441      1
  1611   1117   1171      1
  1612   1118   1119      1
  1613   1118   1441      1
  1614   1119   1122      1
  1615   1120   1121      1
  1616   1120   1123      1
  1617   1121   1173      1
  1618   1122   1123      1
  1619   1124   1127      1
  1620   1124   1129      1
  1621   1125   1126      1
  1622   1125   1128      1
  1623   1126   1127      1
  1624   1127   1449      1
  1625   1128   1130      1
  1626   1129   1131      1
  1627   1129   1177      1
  1628   1130   1132      1
  1629   1131   1133      1
  1630   1131   1183      1
  1631   1132   1134      1
  1632   1132   1135      1
  1633   1133   1134      1
  1634   1133   1136      1
  1635   1134   1137      1
  1636   1136   1138      1
  1637   1136   1186      1
  1638   1137   1139      1
  1639   1138   1140      1
  1640   1138   1193      1
  1641   1139   1140      1
  1642   1139   1141      1
  1643   1140   1142      1
  1644   1141   1143      1
  1645   1142   1143      1
  1646   1142   1144      1
  1647   1143   1145      1
  1648   1144   1147      1
  1649   1144   1200      1
  1650   1146   1417      1
  1651   1146   1466      1
  1652   1147   1148      1
  1653   1147   1466      1
  1654   1148   1206      1
  1655   1148   1470      1
  1656   1149   1150      1
  1657   1150   1152      1
  1658   1150   1480      1
  1659   1151   1152      1
  1660   1151   1215      1
  1661   1152   1153      1
  1662   1153   1155      1
  1663   1153   1156      1
  1664   1154   1156      1
  1665   1155   1157      1
  1666   1155   1215      1
  1667   1157   1219      1
  1668   1158   1159      1
  1669   1158   1161      1
  1670   1160   1161      1
  1671   1160   1434      1
  1672   1160   1488      1
  1673   1161   1162      1
  1674   1162   1163      1
  1675   1162   1164      1
  1676   1163   1165      1
  1677   1163   1490      1
  1678   1164   1166      1
  1679   1165   1168      1
  1680   1165   1221      1
  1681   1167   1170      1
  1682   1168   1169      1
  1683   1168   1225      1
  1684   1169   1172      1
  1685   1169   1496      1
  1686   1170   1173      1
  1687   1171   1172      1
  1688   1171   1443      1
  1689   1172   1174      1
  1690   1174   1175      1
  1691   1175   1227      1
  1692   1176   1177      1
  1693   1176   1179      1
  1694   1178   1233      1
  1695   1179   1181      1
  1696   1179   1505      1
  1697   1180   1182      1
  1698   1180   1233      1
  1699   1180   1238      1
  1700   1181   1182      1
  1701   1181   1183      1
  1702   1182   1184      1
  1703   1183   1186      1
  1704   1184   1185      1
  1705   1185   1187      1
  1706   1186   1188      1
  1707   1187   1192      1
  1708   1188   1189      1
  1709   1188   1193      1
  1710   1189   1190      1
  1711   1189   1194      1
  1712   1190   1191      1
  1713   1190   1243      1
  1714   1191   1192      1
  1715   1192   1195      1
  1716   1193   1196      1
  1717   1194   1197      1
  1718   1194   1565      1
  1719   1195   1198      1
  1720   1196   1197      1
  1721   1196   1200      1
  1722   1197   1201      1
  1723   1198   1199      1
  1724   1198   1203      1
  1725   1199   1202      1
  1726   1199   1251      1
  1727   1200   1204      1
  1728   1201   1202      1
  1729   1201   1204      1
  1730   1201   1518      1
  1731   1202   1255      1
  1732   1203   1204      1
  1733   1203   1205      1
  1734   1204   1206      1
  1735   1205   1207      1
  1736   1206   1208      1
  1737   1207   1209      1
  1738   1208   1210      1
  1739   1208   1524      1
  1740   1209   1210      1
  1741   1210   1212      1
  1742   1211   1212      1
  1743   1211   1260      1
  1744   1212   1213      1
  1745   1213   1214      1
  1746   1213   1216      1
  1747   1214   1265      1
  1748   1214   1268      1
  1749   1215   1216      1
  1750   1216   1217      1
  1751   1217   1218      1
  1752   1217   1219      1
  1753   1218   1268      1
  1754   1218   1271      1
  1755   1220   1221      1
  1756   1221   1223      1
  1757   1222   1223      1
  1758   1222   1274      1
  1759   1223   1224      1
  1760   1224   1225      1
  1761   1224   1226      1
  1762   1225   1227      1
  1763   1226   1228      1
  1764   1226   1278      1
  1765   1227   1228      1
  1766   1228   1229      1
  1767   1228   1230      1
  1768   1229   1231      1
  1769   1229   1545      1
  1770   1231   1550      1
  1771   1232   1234      1
  1772   1232   1235      1
  1773   1233   1235      1
  1774   1233   1285      1
  1775   1234   1236      1
  1776   1235   1237      1
  1777   1236   1237      1
  1778   1237   1239      1
  1779   1238   1240      1
  1780   1238   1508      1
  1781   1239   1240      1
  1782   1239   1241      1
  1783   1240   1557      1
  1784   1241   1558      1
  1785   1242   1244      1
  1786   1243   1245      1
  1787   1243   1246      1
  1788   1244   1247      1
  1789   1244   1248      1
  1790   1245   1247      1
  1791   1246   1249      1
  1792   1246   1565      1
  1793   1247   1250      1
  1794   1248   1249      1
  1795   1249   1566      1
  1796   1250   1252      1
  1797   1250   1253      1
  1798   1251   1253      1
  1799   1253   1254      1
  1800   1254   1255      1
  1801   1254   1256      1
  1802   1255   1573      1
  1803   1256   1257      1
  1804   1256   1258      1
  1805   1258   1574      1
  1806   1258   1577      1
  1807   1259   1260      1
  1808   1259   1261      1
  1809   1260   1262      1
  1810   1261   1263      1
  1811   1262   1264      1
  1812   1262   1265      1
  1813   1263   1264      1
  1814   1264   1266      1
  1815   1265   1527      1
  1816   1266   1581      1
  1817   1267   1268      1
  1818   1267   1269      1
  1819   1269   1270      1
  1820   1270   1273      1
  1821   1271   1272      1
  1822   1272   1273      1
  1823   1272   1274      1
  1824   1273   1275      1
  1825   1276   1277      1
  1826   1276   1595      1
  1827   1277   1280      1
  1828   1277   1281      1
  1829   1278   1279      1
  1830   1278   1281      1
  1831   1280   1282      1
  1832   1281   1283      1
  1833   1281   1596      1
  1834   1282   1284      1
  1835   1283   1284      1
  1836   1286   1349      1
  1837   1287   1288      1
  1838   1288   1291      1
  1839   1289   1290      1
  1840   1289   1349      1
  1841   1289   1352      1
  1842   1290   1291      1
  1843   1290   1293      1
  1844   1291   1292      1
  1845   1292   1294      1
  1846   1292   1295      1
  1847   1293   1296      1
  1848   1294   1352      1
  1849   1294   1607      1
  1850   1295   1298      1
  1851   1296   1297      1
  1852   1297   1299      1
  1853   1297   1300      1
  1854   1298   1299      1
  1855   1298   1611      1
  1856   1299   1301      1
  1857   1300   1303      1
  1858   1300   1361      1
  1859   1301   1302      1
  1860   1301   1303      1
  1861   1302   1306      1
  1862   1302   1611      1
  1863   1302   1615      1
  1864   1303   1304      1
  1865   1303   1305      1
  1866   1304   1308      1
  1867   1305   1363      1
  1868   1305   1365      1
  1869   1306   1309      1
  1870   1307   1308      1
  1871   1308   1311      1
  1872   1309   1310      1
  1873   1309   1312      1
  1874   1310   1313      1
  1875   1310   1615      1
  1876   1311   1314      1
  1877   1312   1316      1
  1878   1313   1315      1
  1879   1313   1316      1
  1880   1315   1317      1
  1881   1316   1318      1
  1882   1317   1319      1
  1883   1317   1373      1
  1884   1318   1319      1
  1885   1318   1320      1
  1886   1319   1322      1
  1887   1320   1321      1
  1888   1321   1322      1
  1889   1322   1324      1
  1890   1323   1626      1
  1891   1323   1629      1
  1892   1323   1632      1
  1893   1324   1325      1
  1894   1324   1326      1
  1895   1325   1377      1
  1896   1325   1381      1
  1897   1326   1328      1
  1898   1327   1329      1
  1899   1327   1632      1
  1900   1328   1330      1
  1901   1328   1381      1
  1902   1329   1333      1
  1903   1330   1331      1
  1904   1330   1387      1
  1905   1331   1332      1
  1906   1331   1334      1
  1907   1332   1591      1
  1908   1333   1334      1
  1909   1333   1639      1
  1910   1334   1335      1
  1911   1335   1336      1
  1912   1335   1644      1
  1913   1336   1339      1
  1914   1336   1387      1
  1915   1337   1338      1
  1916   1337   1591      1
  1917   1338   1340      1
  1918   1339   1341      1
  1919   1339   1394      1
  1920   1340   1341      1
  1921   1340   1342      1
  1922   1341   1343      1
  1923   1342   1344      1
  1924   1343   1345      1
  1925   1343   1397      1
  1926   1344   1345      1
  1927   1346   1347      1
  1928   1346   1350      1
  1929   1348   1349      1
  1930   1348   1350      1
  1931   1348   1653      1
  1932   1350   1351      1
  1933   1351   1353      1
  1934   1351   1403      1
  1935   1352   1354      1
  1936   1353   1355      1
  1937   1353   1406      1
  1938   1354   1355      1
  1939   1354   1665      1
  1940   1355   1356      1
  1941   1356   1357      1
  1942   1356   1358      1
  1943   1357   1359      1
  1944   1358   1362      1
  1945   1358   1668      1
  1946   1359   1361      1
  1947   1360   1410      1
  1948   1360   1414      1
  1949   1361   1363      1
  1950   1362   1363      1
  1951   1362   1364      1
  1952   1364   1366      1
  1953   1364   1676      1
  1954   1365   1368      1
  1955   1366   1367      1
  1956   1366   1369      1
  1957   1367   1370      1
  1958   1367   1416      1
  1959   1369   1371      1
  1960   1369   1679      1
  1961   1370   1372      1
  1962   1370   1423      1
  1963   1371   1372      1
  1964   1371   1373      1
  1965   1372   1374      1
  1966   1373   1376      1
  1967   1374   1375      1
  1968   1374   1376      1
  1969   1375   1425      1
  1970   1377   1378      1
  1971   1377   1629      1
  1972   1378   1380      1
  1973   1378   1688      1
  1974   1379   1380      1
  1975   1379   1430      1
  1976   1379   1689      1
  1977   1380   1382      1
  1978   1381   1383      1
  1979   1382   1383      1
  1980   1382   1384      1
  1981   1383   1385      1
  1982   1384   1431      1
  1983   1384   1436      1
  1984   1385   1386      1
  1985   1386   1387      1
  1986   1386   1389      1
  1987   1388   1389      1
  1988   1388   1390      1
  1989   1388   1436      1
  1990   1389   1391      1
  1991   1389   1392      1
  1992   1390   1393      1
  1993   1390   1694      1
  1994   1391   1440      1
  1995   1392   1394      1
  1996   1392   1395      1
  1997   1393   1395      1
  1998   1393   1759      1
  1999   1395   1396      1
  2000   1396   1398      1
  2001   1396   1701      1
  2002   1397   1398      1
  2003   1399   1445      1
  2004   1399   1820      1
  2005   1401   1402      1
  2006   1401   1403      1
  2007   1402   1706      1
  2008   1403   1404      1
  2009   1404   1406      1
  2010   1404   1706      1
  2011   1405   1407      1
  2012   1405   1451      1
  2013   1406   1711      1
  2014   1407   1408      1
  2015   1407   1455      1
  2016   1408   1409      1
  2017   1409   1410      1
  2018   1409   1412      1
  2019   1411   1412      1
  2020   1411   1413      1
  2021   1411   1714      1
  2022   1412   1414      1
  2023   1413   1415      1
  2024   1413   1719      1
  2025   1414   1416      1
  2026   1415   1416      1
  2027   1415   1722      1
  2028   1417   1418      1
  2029   1417   1463      1
  2030   1418   1419      1
  2031   1418   1422      1
  2032   1419   1420      1
  2033   1419   1421      1
  2034   1420   1464      1
  2035   1420   1468      1
  2036   1421   1722      1
  2037   1421   1726      1
  2038   1422   1423      1
  2039   1423   1425      1
  2040   1424   1468      1
  2041   1424   1473      1
  2042   1424   1733      1
  2043   1425   1427      1
  2044   1426   1427      1
  2045   1426   1471      1
  2046   1427   1428      1
  2047   1428   1429      1
  2048   1429   1432      1
  2049   1429   1479      1
  2050   1430   1431      1
  2051   1430   1741      1
  2052   1431   1433      1
  2053   1432   1433      1
  2054   1432   1434      1
  2055   1433   1435      1
  2056   1435   1436      1
  2057   1435   1437      1
  2058   1437   1438      1
  2059   1437   1440      1
  2060   1438   1439      1
  2061   1438   1488      1
  2062   1439   1494      1
  2063   1439   1754      1
  2064   1440   1441      1
  2065   1441   1442      1
  2066   1442   1443      1
  2067   1442   1444      1
  2068   1443   1499      1
  2069   1444   1445      1
  2070   1444   1446      1
  2071   1445   1499      1
  2072   1447   1449      1
  2073   1447   1450      1
  2074   1448   1450      1
  2075   1448   1504      1
  2076   1448   1769      1
  2077   1449   1451      1
  2078   1450   1452      1
  2079   1451   1453      1
  2080   1452   1453      1
  2081   1452   1454      1
  2082   1453   1455      1
  2083   1454   1456      1
  2084   1454   1511      1
  2085   1455   1457      1
  2086   1456   1457      1
  2087   1456   1458      1
  2088   1457   1459      1
  2089   1458   1460      1
  2090   1458   1513      1
  2091   1459   1461      1
  2092   1459   1781      1
  2093   1460   1461      1
  2094   1460   1462      1
  2095   1461   1463      1
  2096   1462   1465      1
  2097   1462   1514      1
  2098   1463   1464      1
  2099   1464   1788      1
  2100   1465   1467      1
  2101   1466   1469      1
  2102   1467   1523      1
  2103   1467   1791      1
  2104   1468   1793      1
  2105   1469   1471      1
  2106   1469   1472      1
  2107   1470   1472      1
  2108   1470   1525      1
  2109   1471   1473      1
  2110   1472   1474      1
  2111   1473   1475      1
  2112   1474   1475      1
  2113   1474   1476      1
  2114   1475   1477      1
  2115   1476   1525      1
  2116   1476   1529      1
  2117   1477   1478      1
  2118   1477   1481      1
  2119   1477   1800      1
  2120   1478   1531      1
  2121   1478   1804      1
  2122   1479   1480      1
  2123   1479   1481      1
  2124   1480   1482      1
  2125   1481   1483      1
  2126   1482   1484      1
  2127   1483   1487      1
  2128   1483   1742      1
  2129   1484   1486      1
  2130   1485   1486      1
  2131   1485   1534      1
  2132   1485   1804      1
  2133   1486   1487      1
  2134   1487   1808      1
  2135   1488   1491      1
  2136   1489   1492      1
  2137   1489   1493      1
  2138   1489   1535      1
  2139   1490   1491      1
  2140   1490   1493      1
  2141   1491   1494      1
  2142   1492   1494      1
  2143   1492   1810      1
  2144   1493   1541      1
  2145   1495   1496      1
  2146   1495   1497      1
  2147   1495   1541      1
  2148   1495   1546      1
  2149   1496   1500      1
  2150   1497   1498      1
  2151   1497   1864      1
  2152   1498   1501      1
  2153   1498   1817      1
  2154   1499   1500      1
  2155   1500   1502      1
  2156   1501   1820      1
  2157   1502   1548      1
  2158   1503   1504      1
  2159   1503   1505      1
  2160   1504   1824      1
  2161   1505   1506      1
  2162   1506   1507      1
  2163   1506   1508      1
  2164   1507   1510      1
  2165   1507   1826      1
  2166   1508   1509      1
  2167   1509   1510      1
  2168   1509   1559      1
  2169   1510   1831      1
  2170   1511   1512      1
  2171   1511   1829      1
  2172   1512   1513      1
  2173   1512   1834      1
  2174   1513   1514      1
  2175   1514   1515      1
  2176   1515   1516      1
  2177   1515   1839      1
  2178   1516   1517      1
  2179   1516   1569      1
  2180   1517   1518      1
  2181   1517   1567      1
  2182   1518   1519      1
  2183   1519   1520      1
  2184   1519   1573      1
  2185   1520   1521      1
  2186   1520   1575      1
  2187   1521   1522      1
  2188   1522   1523      1
  2189   1523   1846      1
  2190   1524   1525      1
  2191   1524   1526      1
  2192   1526   1527      1
  2193   1526   1528      1
  2194   1527   1583      1
  2195   1528   1529      1
  2196   1528   1530      1
  2197   1529   1531      1
  2198   1530   1532      1
  2199   1530   1533      1
  2200   1531   1533      1
  2201   1532   1583      1
  2202   1532   1586      1
  2203   1533   1856      1
  2204   1534   1535      1
  2205   1534   1858      1
  2206   1535   1537      1
  2207   1536   1537      1
  2208   1536   1538      1
  2209   1537   1539      1
  2210   1538   1540      1
  2211   1538   1592      1
  2212   1539   1541      1
  2213   1539   1542      1
  2214   1540   1542      1
  2215   1540   1594      1
  2216   1542   1543      1
  2217   1543   1545      1
  2218   1543   1547      1
  2219   1544   1547      1
  2220   1544   1867      1
  2221   1544   1868      1
  2222   1545   1546      1
  2223   1546   1548      1
  2224   1547   1549      1
  2225   1549   1550      1
  2226   1550   1600      1
  2227   1551   1553      1
  2228   1552   1554      1
  2229   1552   1871      1
  2230   1553   1554      1
  2231   1553   1555      1
  2232   1554   1876      1
  2233   1555   1556      1
  2234   1556   1876      1
  2235   1556   1880      1
  2236   1557   1558      1
  2237   1557   1559      1
  2238   1558   1560      1
  2239   1559   1561      1
  2240   1560   1564      1
  2241   1561   1562      1
  2242   1561   1564      1
  2243   1562   1831      1
  2244   1562   1884      1
  2245   1563   1564      1
  2246   1563   1880      1
  2247   1563   1884      1
  2248   1565   1567      1
  2249   1566   1568      1
  2250   1566   1572      1
  2251   1567   1568      1
  2252   1568   1570      1
  2253   1569   1570      1
  2254   1569   1840      1
  2255   1570   1889      1
  2256   1571   1572      1
  2257   1571   1889      1
  2258   1573   1574      1
  2259   1574   1576      1
  2260   1575   1576      1
  2261   1575   1898      1
  2262   1576   1578      1
  2263   1577   1579      1
  2264   1578   1579      1
  2265   1578   1580      1
  2266   1579   1581      1
  2267   1580   1582      1
  2268   1580   1900      1
  2269   1581   1584      1
  2270   1582   1584      1
  2271   1582   1585      1
  2272   1583   1584      1
  2273   1585   1586      1
  2274   1585   1906      1
  2275   1586   1857      1
  2276   1587   1588      1
  2277   1587   1907      1
  2278   1588   1590      1
  2279   1588   1909      1
  2280   1589   1590      1
  2281   1590   1592      1
  2282   1592   1593      1
  2283   1593   1594      1
  2284   1593   1595      1
  2285   1594   1596      1
  2286   1595   1597      1
  2287   1596   1598      1
  2288   1597   1598      1
  2289   1597   1599      1
  2290   1598   1600      1
  2291   1599   1601      1
  2292   1602   1603      1
  2293   1602   1651      1
  2294   1603   1605      1
  2295   1603   1659      1
  2296   1604   1605      1
  2297   1605   1606      1
  2298   1606   1608      1
  2299   1607   1609      1
  2300   1607   1665      1
  2301   1608   1609      1
  2302   1608   1662      1
  2303   1609   1610      1
  2304   1610   1611      1
  2305   1610   1612      1
  2306   1612   1613      1
  2307   1613   1614      1
  2308   1613   1670      1
  2309   1614   1677      1
  2310   1616   1617      1
  2311   1617   1619      1
  2312   1618   1619      1
  2313   1618   1677      1
  2314   1618   1683      1
  2315   1619   1620      1
  2316   1620   1621      1
  2317   1620   1622      1
  2318   1622   1623      1
  2319   1622   1625      1
  2320   1623   1683      1
  2321   1623   1687      1
  2322   1624   1626      1
  2323   1625   1628      1
  2324   1627   1628      1
  2325   1627   1629      1
  2326   1627   1687      1
  2327   1628   1630      1
  2328   1630   1631      1
  2329   1630   1633      1
  2330   1632   1633      1
  2331   1633   1634      1
  2332   1634   1635      1
  2333   1635   1636      1
  2334   1636   1637      1
  2335   1637   1641      1
  2336   1637   1693      1
  2337   1638   1639      1
  2338   1638   1640      1
  2339   1639   1642      1
  2340   1640   1643      1
  2341   1641   1642      1
  2342   1641   1643      1
  2343   1642   1644      1
  2344   1644   1645      1
  2345   1645   1647      1
  2346   1645   1696      1
  2347   1646   1648      1
  2348   1647   1649      1
  2349   1650   1651      1
  2350   1650   1654      1
  2351   1652   1700      1
  2352   1652   1702      1
  2353   1653   1654      1
  2354   1654   1656      1
  2355   1655   1656      1
  2356   1655   1657      1
  2357   1656   1658      1
  2358   1657   1661      1
  2359   1657   1707      1
  2360   1658   1659      1
  2361   1658   1660      1
  2362   1659   1662      1
  2363   1660   1661      1
  2364   1660   1663      1
  2365   1661   1664      1
  2366   1662   1663      1
  2367   1663   1666      1
  2368   1664   1667      1
  2369   1664   1711      1
  2370   1665   1668      1
  2371   1666   1669      1
  2372   1666   1670      1
  2373   1667   1669      1
  2374   1667   1719      1
  2375   1668   1671      1
  2376   1669   1672      1
  2377   1670   1671      1
  2378   1671   1674      1
  2379   1672   1673      1
  2380   1672   1675      1
  2381   1673   1719      1
  2382   1673   1721      1
  2383   1674   1676      1
  2384   1674   1677      1
  2385   1675   1678      1
  2386   1676   1679      1
  2387   1677   1678      1
  2388   1678   1680      1
  2389   1679   1681      1
  2390   1680   1681      1
  2391   1680   1682      1
  2392   1681   1683      1
  2393   1681   1685      1
  2394   1682   1684      1
  2395   1682   1727      1
  2396   1684   1685      1
  2397   1684   1732      1
  2398   1685   1686      1
  2399   1686   1687      1
  2400   1686   1688      1
  2401   1688   1689      1
  2402   1689   1737      1
  2403   1690   1691      1
  2404   1691   1692      1
  2405   1691   1693      1
  2406   1692   1694      1
  2407   1692   1750      1
  2408   1693   1695      1
  2409   1694   1695      1
  2410   1695   1696      1
  2411   1696   1697      1
  2412   1697   1698      1
  2413   1698   1699      1
  2414   1699   1702      1
  2415   1700   1701      1
  2416   1700   1762      1
  2417   1703   1705      1
  2418   1704   1705      1
  2419   1704   1766      1
  2420   1704   1772      1
  2421   1705   1706      1
  2422   1705   1707      1
  2423   1707   1709      1
  2424   1708   1709      1
  2425   1708   1710      1
  2426   1709   1712      1
  2427   1710   1713      1
  2428   1710   1776      1
  2429   1711   1714      1
  2430   1712   1715      1
  2431   1713   1714      1
  2432   1713   1716      1
  2433   1715   1717      1
  2434   1716   1717      1
  2435   1716   1781      1
  2436   1717   1718      1
  2437   1718   1782      1
  2438   1720   1723      1
  2439   1721   1722      1
  2440   1721   1724      1
  2441   1723   1724      1
  2442   1723   1725      1
  2443   1724   1726      1
  2444   1724   1727      1
  2445   1725   1728      1
  2446   1725   1789      1
  2447   1726   1730      1
  2448   1727   1729      1
  2449   1728   1731      1
  2450   1728   1794      1
  2451   1729   1731      1
  2452   1729   1734      1
  2453   1730   1732      1
  2454   1730   1733      1
  2455   1731   1735      1
  2456   1732   1737      1
  2457   1733   1736      1
  2458   1734   1738      1
  2459   1735   1736      1
  2460   1735   1738      1
  2461   1735   1801      1
  2462   1736   1739      1
  2463   1737   1739      1
  2464   1738   1740      1
  2465   1739   1741      1
  2466   1740   1743      1
  2467   1741   1742      1
  2468   1742   1744      1
  2469   1743   1746      1
  2470   1744   1746      1
  2471   1744   1749      1
  2472   1745   1747      1
  2473   1746   1748      1
  2474   1747   1748      1
  2475   1747   1750      1
  2476   1748   1751      1
  2477   1749   1752      1
  2478   1749   1808      1
  2479   1750   1753      1
  2480   1751   1752      1
  2481   1751   1753      1
  2482   1752   1754      1
  2483   1753   1755      1
  2484   1753   1756      1
  2485   1754   1757      1
  2486   1755   1757      1
  2487   1755   1759      1
  2488   1756   1758      1
  2489   1757   1760      1
  2490   1758   1760      1
  2491   1758   1761      1
  2492   1759   1762      1
  2493   1760   1763      1
  2494   1761   1816      1
  2495   1762   1764      1
  2496   1763   1764      1
  2497   1763   1819      1
  2498   1767   1768      1
  2499   1767   1770      1
  2500   1768   1771      1
  2501   1768   1822      1
  2502   1769   1771      1
  2503   1770   1772      1
  2504   1771   1773      1
  2505   1772   1774      1
  2506   1773   1774      1
  2507   1773   1775      1
  2508   1774   1776      1
  2509   1775   1777      1
  2510   1775   1829      1
  2511   1776   1778      1
  2512   1777   1832      1
  2513   1778   1779      1
  2514   1779   1780      1
  2515   1780   1782      1
  2516   1780   1783      1
  2517   1781   1784      1
  2518   1782   1784      1
  2519   1783   1785      1
  2520   1784   1786      1
  2521   1785   1787      1
  2522   1785   1841      1
  2523   1786   1787      1
  2524   1786   1788      1
  2525   1787   1790      1
  2526   1788   1791      1
  2527   1790   1792      1
  2528   1790   1844      1
  2529   1791   1792      1
  2530   1791   1793      1
  2531   1792   1795      1
  2532   1792   1846      1
  2533   1793   1796      1
  2534   1794   1795      1
  2535   1794   1798      1
  2536   1795   1796      1
  2537   1795   1797      1
  2538   1796   1800      1
  2539   1797   1799      1
  2540   1797   1851      1
  2541   1798   1799      1
  2542   1798   1801      1
  2543   1800   1802      1
  2544   1801   1802      1
  2545   1802   1803      1
  2546   1803   1804      1
  2547   1803   1806      1
  2548   1805   1806      1
  2549   1806   1807      1
  2550   1807   1809      1
  2551   1808   1810      1
  2552   1809   1810      1
  2553   1809   1811      1
  2554   1811   1812      1
  2555   1811   1862      1
  2556   1812   1813      1
  2557   1813   1814      1
  2558   1813   1815      1
  2559   1814   1816      1
  2560   1815   1817      1
  2561   1815   1864      1
  2562   1816   1818      1
  2563   1817   1818      1
  2564   1818   1819      1
  2565   1819   1820      1
  2566   1822   1823      1
  2567   1823   1824      1
  2568   1824   1826      1
  2569   1825   1827      1
  2570   1825   1828      1
  2571   1826   1827      1
  2572   1827   1830      1
  2573   1828   1881      1
  2574   1829   1833      1
  2575   1830   1831      1
  2576   1830   1881      1
  2577   1832   1833      1
  2578   1832   1835      1
  2579   1833   1834      1
  2580   1834   1839      1
  2581   1835   1836      1
  2582   1836   1837      1
  2583   1837   1838      1
  2584   1837   1885      1
  2585   1838   1839      1
  2586   1838   1840      1
  2587   1839   1841      1
  2588   1840   1886      1
  2589   1841   1842      1
  2590   1842   1843      1
  2591   1842   1844      1
  2592   1843   1845      1
  2593   1845   1847      1
  2594   1845   1895      1
  2595   1846   1849      1
  2596   1847   1848      1
  2597   1847   1850      1
  2598   1848   1897      1
  2599   1848   1902      1
  2600   1849   1850      1
  2601   1849   1851      1
  2602   1850   1852      1
  2603   1851   1854      1
  2604   1852   1853      1
  2605   1852   1854      1
  2606   1853   1902      1
  2607   1854   1855      1
  2608   1856   1857      1
  2609   1856   1858      1
  2610   1857   1859      1
  2611   1858   1861      1
  2612   1859   1860      1
  2613   1859   1909      1
  2614   1860   1861      1
  2615   1860   1863      1
  2616   1861   1862      1
  2617   1863   1911      1
  2618   1863   1913      1
  2619   1864   1867      1
  2620   1865   1866      1
  2621   1865   1867      1
  2622   1865   1869      1
  2623   1866   1868      1
  2624   1866   1916      1
  2625   1868   1919      1
  2626   1869   1870      1
  2627   1871   1872      1
  2628   1872   1873      1
  2629   1873   1874      1
  2630   1873   1877      1
  2631   1874   1875      1
  2632   1876   1877      1
  2633   1877   1879      1
  2634   1878   1879      1
  2635   1879   1882      1
  2636   1881   1883      1
  2637   1882   1883      1
  2638   1882   1884      1
  2639   1883   1885      1
  2640   1885   1886      1
  2641   1886   1887      1
  2642   1887   1889      1
  2643   1887   1890      1
  2644   1888   1891      1
  2645   1892   1893      1
  2646   1892   1897      1
  2647   1893   1895      1
  2648   1893   1896      1
  2649   1894   1896      1
  2650   1895   1898      1
  2651   1896   1899      1
  2652   1898   1900      1
  2653   1899   1900      1
  2654   1899   1901      1
  2655   1901   1903      1
  2656   1903   1904      1
  2657   1904   1905      1
  2658   1905   1906      1
  2659   1906   1907      1
  2660   1907   1908      1
  2661   1908   1910      1
  2662   1909   1911      1
  2663   1910   1912      1
  2664   1911   1912      1
  2665   1912   1914      1
  2666   1913   1914      1
  2667   1916   1918      1
  2668   1918   1919      1
  2669   1918   1920      1
  2670   1922   1923     du
  2671   1923   1924     du
  2672   1924   1925     du
  2673   1925   1922     du
  2674   1926   1927     du
  2675   1927   1928     du
  2676   1928   1929     du
  2677   1929   1926     du
  2678   1925   1929     du
  2679   1926   1922     du
  2680   1924   1928     du
  2681   1927   1923     du
