@<TRIPOS>MOLECULE
LAMMPS data file via write_data, version 29 Oct 2020, timestep = 1000 > lmp2SYBYLmol2 v3.0 / 22 May 2023 w/remove_PBC_bonds=True
  2012 1444    0    0    0
SMALL
NO_CHARGES
****
Energy = 0

@<TRIPOS>ATOM
      1 C          -13.7008   -11.7929   -12.3121 C       0      f0     0.0003
      2 C          -13.4555   -11.5662    -9.6878 C       0      f0     0.0001
      3 C          -13.1829   -12.6893    -8.7934 C       0      f0    -0.0011
      4 C          -12.9306   -11.5724   -11.1176 C       0      f0    -0.0006
      5 C          -11.4724   -11.7859   -11.1091 C       7      f7    -0.0011
      6 C          -11.3621   -10.7667    -8.7447 C       0      f0     0.0008
      7 C          -10.7436   -11.1886    -9.9982 C       7      f7     0.0006
      8 C          -10.5111   -11.8499   -12.2177 C       7      f7    -0.0009
      9 C           -9.4934   -10.6046   -10.5454 C       7      f7    -0.0024
     10 C           -9.4484   -10.8250   -11.9834 C       7      f7    -0.0010
     11 C           -8.7318    -9.5023   -10.0063 C       7      f7    -0.0028
     12 C           -8.0462    -9.8220    -8.7877 C       7      f7    -0.0022
     13 C           -5.5307   -13.2725   -12.4314 C      27     f27     0.0024
     14 C           -5.6766    -9.7206   -12.7489 C       0      f0    -0.0024
     15 H           -5.3345   -11.1981    -9.9550 H       0      f0     0.0241
     16 C           -4.8731   -10.7794   -12.1088 C       0      f0     0.0056
     17 C           -4.6703   -10.8351   -10.6550 C       0      f0    -0.0213
     18 C           -3.3264   -10.7327   -10.3223 C       0      f0     0.0054
     19 C           -2.8294   -11.3301    -8.9841 C       0      f0    -0.0061
     20 C           -2.3766   -10.2730   -12.7661 C      17     f17    -0.0006
     21 C           -2.3044   -10.1826   -11.2610 C      17     f17    -0.0011
     22 C           -1.5845    -9.0523   -10.7796 C      17     f17    -0.0008
     23 C           -1.4294   -11.7335    -9.1426 C      11     f11     0.0033
     24 C           -1.1366   -13.1576    -9.3529 C      11     f11    -0.0209
     25 C           -0.8374    -9.2831    -9.5741 C      17     f17    -0.0010
     26 H           -0.5820   -13.1360   -12.1589 H       0      f0     0.0234
     27 C           -0.4099   -10.6560    -9.0902 C      11     f11    -0.0029
     28 C            0.5652    -8.8510   -12.0295 C       0      f0    -0.0033
     29 C            0.8133   -11.5033   -12.4190 C       0      f0     0.0021
     30 C            1.0010   -11.0019    -9.2505 C      11     f11    -0.0016
     31 C            1.3345   -12.3328   -10.0555 C      11     f11    -0.0020
     32 C            1.8703   -11.7319   -11.4560 C      11     f11    -0.0001
     33 C            2.0145   -10.0889    -8.8838 C      11     f11     0.0026
     34 C            2.6556   -12.7839    -9.5864 C      11     f11    -0.0067
     35 C            3.2733   -11.5073   -11.5854 C      11     f11    -0.0015
     36 C            3.7760   -12.3419   -10.4828 C      11     f11    -0.0020
     37 C            4.1069   -10.7302   -12.5379 C       0      f0     0.0083
     38 C            4.9644   -13.1727   -10.6997 C       0      f0    -0.0009
     39 C            5.5104   -10.2707   -12.3104 C       0      f0     0.0341
     40 C            6.1749   -12.5253   -11.2891 C       1      f1    -0.0030
     41 C            6.2273   -10.1210   -11.0319 C       0      f0    -0.0083
     42 C            6.7591   -11.4044   -10.4952 C       1      f1    -0.0022
     43 C            6.8524    -8.7628   -10.6727 C       0      f0     0.0048
     44 C            7.0317   -12.8452   -12.4293 C       1      f1     0.0033
     45 C            8.1718   -11.6227   -10.1397 C       1      f1    -0.0012
     46 C            8.8519   -11.1258    -8.8927 C       0      f0    -0.0018
     47 C            8.8076   -12.7387   -10.8645 C       1      f1    -0.0024
     48 C           10.1052   -10.3584    -8.8091 C       0      f0     0.0016
     49 C           10.1449   -13.1759   -10.4356 C       1      f1     0.0005
     50 C           10.7876   -12.6169    -9.1832 C       0      f0    -0.0065
     51 C           11.2258   -11.2099    -9.0434 C       0      f0     0.0018
     52 C           11.2167    -9.2572   -12.3324 C       7      f7     0.0021
     53 C           12.2308   -11.9770    12.8609 C       0      f0    -0.0033
     54 C           12.4850    -8.8416   -12.8926 C       7      f7     0.0006
     55 C           13.1380   -12.4950   -12.0731 C       0      f0     0.0005
     56 C           13.6718   -10.7470    -9.0957 C       0      f0     0.0003
     57 C          -14.0766    -5.6451   -11.5885 C       7      f7     0.0001
     58 C          -13.8444    -5.1602    -9.2534 C       0      f0     0.0033
     59 C          -13.3331    -4.5268   -12.3280 C       7      f7    -0.0054
     60 C          -12.7548    -6.1955    -9.1088 C       0      f0    -0.0001
     61 C          -11.3269    -6.1160    -9.1435 C       0      f0    -0.0020
     62 C          -10.8691    -4.8433   -12.6198 C       7      f7     0.0017
     63 C          -10.4933    -5.3027   -10.0035 C       0      f0    -0.0007
     64 C          -10.0558    -7.3018   -12.8284 C       7      f7     0.0004
     65 C          -10.0228    -5.9676   -12.2071 C       7      f7    -0.0032
     66 C           -9.4385    -5.9413   -10.8682 C       7      f7    -0.0021
     67 C           -9.1956    -8.3281   -12.2401 C       7      f7    -0.0007
     68 C           -8.3970    -6.8415   -10.4103 C       7      f7     0.0009
     69 C           -8.3339    -8.3178   -10.9086 C       7      f7    -0.0022
     70 C           -7.9286    -6.4392    -9.0918 C       0      f0     0.0011
     71 C           -6.7574    -8.5926   -10.9245 C       7      f7    -0.0006
     72 C           -6.5099    -6.1635    -8.6781 C       0      f0     0.0177
     73 C           -6.2044    -8.3083    -9.6233 C       7      f7    -0.0004
     74 C           -5.9111    -8.4512   -12.0589 C       0      f0     0.0001
     75 C           -5.4551    -4.7769   -12.0782 C       1      f1     0.2437
     76 C           -5.5447    -6.9962    -9.3780 C       0      f0     0.0037
     77 C           -5.5051    -7.1398   -12.7164 C       1      f1     0.0033
     78 C           -5.1046    -6.0973   -11.8133 C       1      f1    -0.0424
     79 C           -4.4994    -6.4442   -10.3880 C       0      f0     0.0269
     80 C           -3.4870    -5.7279    -9.8987 C       0      f0     0.0375
     81 C           -2.4046    -4.9118    -9.1878 C      19     f19     0.0059
     82 C           -1.8374    -5.4225    12.8878 C      17     f17     0.0016
     83 C           -1.6806    -7.8544    12.8787 C      17     f17    -0.0034
     84 C           -1.0785    -5.6700    -8.7268 C       0      f0    -0.0019
     85 C           -1.1338    -5.4211   -11.6683 C      17     f17     0.0034
     86 C           -0.8269    -8.0897   -11.7523 C      17     f17    -0.0020
     87 C           -0.6814    -6.7080    -9.6487 C      17     f17    -0.0020
     88 C           -0.8389    -6.6630   -11.0486 C      17     f17    -0.0045
     89 C           -0.3301    -8.0472    -8.9863 C      17     f17    -0.0006
     90 C            1.6199    -8.2283   -11.6966 C       0      f0     0.0024
     91 C            2.0246    -4.6017    -9.0849 C       0      f0    -0.0024
     92 C            2.7071    -7.5762   -11.3476 C       0      f0    -0.0207
     93 H            2.7357    -6.9689   -10.4306 H       0      f0     0.0233
     94 C            3.9417    -7.6040   -12.2545 C       0      f0     0.0030
     95 C            5.1231    -4.5228   -10.5533 C      38     f38    -0.0001
     96 C            5.2563    -6.9931   -11.7982 C       0      f0     0.0115
     97 C            5.4911    -4.4987   -11.9544 C      38     f38    -0.0040
     98 C            5.8653    -5.2943    -9.5145 C      39     f39    -0.0023
     99 C            5.8562    -5.8197   -12.4671 C       0      f0    -0.0045
    100 C            5.9680    -7.5876   -10.6373 C       0      f0    -0.0045
    101 C            6.5194    -6.5439    -9.7943 C      39     f39     0.0021
    102 C            7.9677    -6.6152    -9.1683 C      39     f39    -0.0173
    103 C            8.3052    -8.5065   -11.0653 C       0      f0    -0.0017
    104 C            8.3932    -7.9576   -12.3506 C       0      f0     0.0055
    105 H            8.8352    -6.7509    -9.8013 H       0      f0     0.0229
    106 C            9.6483    -8.5671   -10.3718 C       0      f0    -0.0026
    107 C            9.9237    -8.7372    -8.8861 C       0      f0    -0.0002
    108 C           10.8326    -8.4084   -11.1908 C       7      f7    -0.0013
    109 C           11.1554    -6.4744    -9.0544 C       0      f0    -0.0051
    110 C           11.9914    -7.5161   -10.9795 C       7      f7    -0.0032
    111 C           12.1353    -6.3580   -10.1835 C       7      f7    -0.0032
    112 C           12.9496    -7.7442   -12.0554 C       7      f7    -0.0019
    113 C           13.3408    -5.5409   -10.3034 C       7      f7    -0.0060
    114 C           13.9529    -6.7802   -12.4085 C       7      f7    -0.0073
    115 C          -13.9416    -3.1855   -12.4097 C       5      f5     0.0134
    116 C          -14.0034    -1.1550    -9.4508 C       2      f2     0.2143
    117 C          -10.7883    -0.4908   -12.1048 C       0      f0     0.0114
    118 C          -10.3235    -3.8730    -9.9142 C       0      f0     0.0017
    119 C          -10.3777    -3.4606   -12.5047 C       0      f0    -0.0014
    120 C          -10.0265    -3.1067   -11.1382 C       0      f0     0.0019
    121 C          -10.0802    -3.0597    -8.6990 C       0      f0     0.0199
    122 C           -9.4561    -1.8147    -9.2469 C       0      f0     0.0042
    123 C           -9.3309    -1.9292   -10.7066 C       0      f0     0.0007
    124 C           -9.4071    -0.9104   -11.7653 C       0      f0    -0.0036
    125 C           -9.0069    -0.5651    -8.6352 C       2      f2     0.0017
    126 C           -8.4015    -0.4492   -12.7198 C       0      f0    -0.0017
    127 C           -6.9850    -0.6299   -12.3992 C       0      f0     0.0091
    128 C           -6.5816    -2.0127   -12.3962 C       1      f1    -0.0552
    129 C           -6.1900    -0.7199    -9.4146 C       0      f0     0.0179
    130 C           -5.8359    -2.3737   -11.1898 C       1      f1     0.2445
    131 C           -5.8733    -1.5873   -10.1301 C       0      f0    -0.0382
    132 O           -5.1596    -3.7274   -11.0119 O       1      f1    -0.5060
    133 C           -3.8913    -0.9802   -12.7806 C      12     f12     0.0259
    134 C           -2.5390    -0.8352   -12.1642 C      12     f12     0.0019
    135 C           -1.9877    -2.4124    -9.2779 C      19     f19     0.0040
    136 C           -1.8411    -2.0943   -12.4431 C      12     f12     0.0056
    137 C           -1.7786    -3.6328    -9.9822 C      19     f19     0.0164
    138 C           -1.1905    -1.1871    -8.9742 C       0      f0    -0.0060
    139 C           -0.8562    -4.0933   -10.9583 C       0      f0    -0.0044
    140 C           -0.3989    -2.3181   -12.5307 C       0      f0    -0.0022
    141 C            0.1970    -3.2125   -11.5897 C       0      f0     0.0065
    142 C            1.6272    -3.2456   -11.3042 C      38     f38     0.0017
    143 C            1.9898    -0.1557    -8.6946 C       0      f0    -0.0004
    144 C            2.2665    -1.0159   -12.6518 C       0      f0     0.0098
    145 C            2.4779    -4.0703   -10.4434 C      38     f38     0.0007
    146 C            2.5573    -2.3405   -12.1013 C      38     f38     0.0327
    147 C            3.2197     0.0488   -12.1754 C       0      f0    -0.0034
    148 C            3.5959     0.0790   -10.7509 C       0      f0    -0.0002
    149 C            3.8681    -3.7553   -10.6579 C      38     f38    -0.0009
    150 C            3.8736    -2.8947   -11.8528 C      38     f38     0.0063
    151 C            4.9251    -0.4869   -10.4740 C      23     f23     0.0002
    152 C            4.9108    -3.3655   -12.7736 C      38     f38     0.0108
    153 C            5.4744    -0.9709    -9.2207 C      23     f23     0.0004
    154 C            6.0956    -0.6282   -11.4073 C      23     f23    -0.0019
    155 C            6.9547    -0.9569    -9.2705 C      23     f23    -0.0016
    156 C            7.3959    -0.8058   -10.6626 C      23     f23    -0.0037
    157 C            8.6686    -0.5481   -11.3457 C       0      f0     0.0002
    158 H            9.3563    -2.8555    -9.6978 H       0      f0     0.0207
    159 C            9.4407    -1.4463   -12.2744 C       5      f5     0.0015
    160 C           10.2932    -2.8935   -10.3136 C       5      f5    -0.0145
    161 C           10.4343    -2.3503   -11.6125 C       5      f5     0.0110
    162 C           11.5153    -3.3998    -9.6719 C       5      f5    -0.0034
    163 C           11.7381    -2.6816   -12.2954 C       5      f5     0.0132
    164 C           12.8534    -3.0830   -10.2374 C       5      f5     0.0359
    165 C           12.9288    -3.0967   -11.6650 C       5      f5     0.0148
    166 O           13.6869    -0.2498   -10.5278 O       2      f2    -0.4917
    167 C           13.8849    -2.4589    -9.3675 C       2      f2    -0.0708
    168 C          -13.6700     4.2110   -10.3719 C       0      f0    -0.0013
    169 C          -13.6293     4.4826   -11.8194 C       5      f5    -0.0009
    170 C          -13.2873     1.5389    -8.9930 C       2      f2    -0.0564
    171 C          -12.4386     2.6350    -8.7248 C       2      f2     0.0115
    172 C          -12.4479     3.7211    -9.6505 C       0      f0    -0.0079
    173 H          -11.8219     1.2083   -10.8316 H       0      f0     0.0337
    174 C          -11.4994     1.8164   -12.8337 C      12     f12    -0.0008
    175 C          -11.1619     4.3356    -9.8627 C      35     f35     0.0011
    176 C          -11.0917     1.0166   -11.6391 C      12     f12    -0.0124
    177 C           -9.9650     3.7679    -9.3893 C      35     f35    -0.0019
    178 C           -9.5321     1.4006   -11.3031 C      12     f12    -0.0015
    179 C           -9.5997     2.3274    -9.0007 C       2      f2    -0.0021
    180 C           -9.1438     2.0444   -12.4690 C      12     f12    -0.0038
    181 C           -8.8421     1.5220    -9.9970 C       2      f2    -0.0026
    182 C           -8.1179     0.3525    -9.3754 C       2      f2    -0.0031
    183 C           -7.7617     2.4519   -12.7313 C      12     f12    -0.0024
    184 C           -6.7592     0.3932    -8.7154 C       0      f0    -0.0083
    185 C           -6.4276     1.8865   -12.2352 C      12     f12     0.0009
    186 C           -5.9911     0.4978   -12.2926 C      12     f12     0.0018
    187 C           -5.3834     2.8468   -11.9047 C      12     f12     0.0007
    188 C           -5.4257     3.9343   -12.8606 C      12     f12    -0.0011
    189 C           -4.5757     0.2499   -12.3052 C      12     f12     0.0036
    190 C           -4.0042     2.5641   -11.3447 C      12     f12    -0.0005
    191 C           -3.5861     1.2143   -11.7931 C      12     f12    -0.0008
    192 C           -3.0736     3.3664   -10.5882 C      28     f28    -0.0016
    193 C           -2.3311     0.4742   -11.7410 C      12     f12     0.0057
    194 C           -2.1692     2.6313    -9.5377 C      28     f28    -0.0018
    195 C           -1.9187     0.1611    -8.9098 C      25     f25    -0.0016
    196 C           -1.5815     1.2575    -9.7538 C      25     f25     0.0021
    197 C           -0.9700     0.9179   -11.1201 C       0      f0    -0.0376
    198 C           -1.0044     4.2248   -11.0962 C      28     f28    -0.0026
    199 C           -0.8952     3.5880    -9.7172 C      28     f28    -0.0027
    200 H           -0.5125     1.7989   -11.6045 H       0      f0     0.0237
    201 H           -0.3022     0.0263   -10.9909 H       0      f0     0.0236
    202 C           -0.2894     4.4101    -8.9036 C       0      f0     0.0027
    203 C            1.1523     3.5737   -12.2088 C       6      f6     0.0001
    204 C            2.5235     0.5179    -9.8306 C       0      f0    -0.0031
    205 C            2.4999     1.9368    -9.4017 C       0      f0    -0.0023
    206 C            2.4578     3.4803   -11.5978 C       6      f6     0.0009
    207 C            2.9643     3.0296   -10.2422 C       0      f0    -0.0018
    208 C            3.5439     3.4608   -12.5680 C       6      f6     0.0026
    209 C            4.3454     3.2144    -9.7642 C       0      f0    -0.0018
    210 C            4.6416     2.4174    -8.5477 C       0      f0     0.0004
    211 C            4.8358     3.9935   -12.3917 C       0      f0     0.0039
    212 C            5.2074     4.3628    -9.9347 C      40     f40    -0.0015
    213 C            9.3237     0.8311   -11.2244 C       5      f5     0.0097
    214 C            9.4379     1.6849    -9.9810 C       5      f5     0.0041
    215 C            9.5143     3.0867   -10.2880 C       5      f5     0.0003
    216 C            9.7569     1.7208   -12.2937 C       5      f5     0.0043
    217 C            9.7039     4.2667    -9.4276 C       2      f2    -0.0009
    218 C            9.9114     3.1710   -11.7875 C       5      f5    -0.0003
    219 C           11.4746     3.3764   -11.7125 C       5      f5     0.0031
    220 C           12.1639     3.4148   -12.8923 C       5      f5     0.0015
    221 C           12.1911     3.1568   -10.4138 C       0      f0     0.0177
    222 C           12.3034     4.4369    -9.5848 C       0      f0    -0.0072
    223 C           13.0577     2.0981   -10.3293 C       0      f0    -0.0409
    224 C           13.9272     1.2054   -10.0900 C       2      f2     0.2298
    225 C          -14.0610     8.7554    -8.7872 C       0      f0    -0.0005
    226 C          -13.3325     8.3787   -10.0489 C       0      f0    -0.0017
    227 C          -13.0955     6.9338   -10.1673 C       0      f0     0.0011
    228 C          -12.7330     5.5204   -12.2687 C       5      f5    -0.0021
    229 C          -12.1664     6.3323   -11.1838 C       0      f0     0.0006
    230 C          -11.0191     5.6663   -10.5195 C      35     f35    -0.0001
    231 C           -9.6160     5.7918   -10.6281 C      35     f35     0.0010
    232 C           -9.4085     7.5883   -12.4533 C       0      f0     0.0012
    233 C           -9.0237     4.8113    -9.7195 C      35     f35     0.0005
    234 C           -8.7557     6.5866   -11.5601 C      35     f35     0.0019
    235 C           -7.6225     4.7792    -9.2033 C      35     f35     0.0006
    236 C           -7.3638     6.1844   -11.4671 C      35     f35     0.0028
    237 C           -6.7778     5.5357   -10.2138 C      35     f35     0.0023
    238 C           -6.5153     6.5158   -12.6397 C       0      f0    -0.0002
    239 C           -5.7858     8.4240    -9.2672 C      21     f21    -0.0010
    240 C           -5.4426     5.7400   -10.0583 C       0      f0    -0.0003
    241 C           -5.0378     6.7050   -12.8078 C       0      f0     0.0030
    242 C           -4.6420     8.5713   -11.2701 C      21     f21     0.0051
    243 C           -4.3083     8.4937    -9.8004 C      21     f21    -0.0011
    244 C           -4.1584     5.8264    -9.9134 C      28     f28     0.0005
    245 C           -4.1014     7.6914   -12.2994 C       0      f0    -0.0176
    246 C           -3.4712     7.1121    -9.2172 C      28     f28     0.0003
    247 C           -3.2487     4.8157   -10.5308 C      28     f28    -0.0001
    248 H           -3.0606     7.5460   -12.3991 H       0      f0     0.0259
    249 C           -2.1065     7.4664    -9.7090 C      28     f28     0.0034
    250 C           -1.9614     5.3483   -11.0599 C      28     f28     0.0007
    251 C           -1.5519     6.7124   -10.7786 C      28     f28    -0.0092
    252 C           -1.4750     8.5170    -8.9319 C      34     f34    -0.0022
    253 C           -0.1260     6.9078   -11.2815 C      28     f28     0.0273
    254 C            0.2227     5.9910   -12.4212 C      28     f28     0.0388
    255 C            0.1306     4.5998   -11.9096 C      28     f28    -0.0078
    256 C            0.7120     6.7167   -10.1792 C       0      f0     0.0116
    257 C            1.2296     6.4130    -8.9938 C       0      f0    -0.0001
    258 C            2.7245     6.5202    -8.6233 C       0      f0     0.0035
    259 C            3.5456     8.1232   -10.4550 C      14     f14     0.0134
    260 C            3.5851     7.6140    -9.0644 C       0      f0     0.0012
    261 C            4.0480     8.6397   -12.7379 C      14     f14     0.3995
    262 C            4.4408     7.7422   -11.4973 C      14     f14    -0.0561
    263 C            5.3778     4.8423   -11.1958 C      40     f40     0.0071
    264 C            5.8173     7.5052   -11.2431 C      40     f40     0.0323
    265 C            6.1518     6.1060   -10.9450 C      40     f40    -0.0002
    266 C            6.0303     5.0176    -8.6658 C      40     f40    -0.0003
    267 C            6.3866     6.2670    -9.4731 C      40     f40    -0.0034
    268 C            6.6169     8.4423   -10.2454 C      40     f40    -0.0222
    269 C            6.7160     7.5084    -8.9849 C      40     f40    -0.0006
    270 C            9.4133     4.5238   -12.4827 C       1      f1    -0.0011
    271 C           10.2549     5.6999   -12.3107 C       1      f1    -0.0049
    272 C           11.0472     4.9800    -9.2379 C       2      f2    -0.0019
    273 H           12.4037     7.2961   -12.6932 H       0      f0     0.0219
    274 C           13.1714     7.5052    -8.7137 C       0      f0     0.0004
    275 C           13.6065     5.0660    -9.5559 C       0      f0    -0.0035
    276 C           13.9497     6.5094    -9.4115 C       0      f0    -0.0018
    277 C          -13.6139    12.4659   -10.9378 C       0      f0     0.0001
    278 C          -13.4499    11.4198    -8.6353 C       0      f0     0.0037
    279 C          -13.3284    12.6360    -9.4742 C       0      f0    -0.0032
    280 C          -13.0906     9.2981   -11.1748 C       0      f0     0.0002
    281 C          -12.9062    12.3307   -12.2058 C       0      f0    -0.0006
    282 C          -11.6445     9.5992   -11.3102 C       0      f0     0.0007
    283 C          -11.4992    11.9534   -12.2822 C       0      f0    -0.0009
    284 C          -11.3415    10.4901   -12.4398 C       0      f0     0.0009
    285 C          -10.6683     9.5324    -8.8492 C      21     f21    -0.0012
    286 C          -10.5651     9.4243   -10.2879 C      21     f21     0.0008
    287 C           -9.2440     9.3559   -10.8082 C      21     f21    -0.0009
    288 C           -9.1385     9.0393   -12.2344 C       0      f0     0.0004
    289 H           -8.2815    13.1309    -9.4082 H       0      f0     0.0211
    290 C           -8.1419     9.1934    -9.8544 C      21     f21    -0.0005
    291 C           -8.0487     9.7369    12.8718 C       0      f0     0.0011
    292 C           -7.4777    12.9577   -11.4434 C      27     f27     0.0051
    293 C           -7.4513    13.1098   -10.1116 C      27     f27    -0.0184
    294 C           -6.9807    12.9741   -12.6948 C      27     f27    -0.0016
    295 C           -6.6181     9.3926   -12.7479 C       0      f0     0.0008
    296 C           -6.7228     8.9863   -10.2010 C      21     f21    -0.0002
    297 C           -5.9921    13.0914    -9.7813 C      27     f27     0.0016
    298 C           -5.9958     9.0705   -11.4920 C      21     f21    -0.0008
    299 C           -5.2766    12.8154   -11.0834 C      27     f27     0.0002
    300 C           -4.4625    11.6110   -11.0836 C      27     f27     0.0008
    301 C           -4.1626    11.0918    -9.7466 C      27     f27    -0.0010
    302 C           -3.8972    11.1740   -12.3661 C       0      f0    -0.0005
    303 C           -3.7445     9.8087    -9.2633 C      27     f27    -0.0006
    304 C           -2.6023    10.4914   -12.2090 C       0      f0     0.0025
    305 H           -1.7982    12.6147    -9.1039 H       0      f0     0.0229
    306 C           -1.7460    10.6733   -11.1806 C       0      f0     0.0021
    307 C           -0.8752    10.8211   -10.1445 C       0      f0    -0.0019
    308 C           -0.5357     9.5773    -9.4000 C      34     f34     0.0065
    309 C            0.1129    13.1760    -9.8493 C      11     f11    -0.0035
    310 C            0.2764    11.8791   -10.2996 C       0      f0    -0.0056
    311 C            1.5411    11.3693   -10.8880 C      14     f14     0.0107
    312 C            1.9029    10.0459    -8.6886 C      34     f34    -0.0034
    313 C            1.8272    11.7573   -12.2762 C      14     f14    -0.0070
    314 C            2.2099    10.3485   -10.0894 C      14     f14     0.0028
    315 C            2.7266    10.8105   -12.8836 C      14     f14     0.0605
    316 C            2.9588     9.3811   -10.9050 C      14     f14     0.0189
    317 C            3.2370     9.7139   -12.1906 C      14     f14    -0.0290
    318 C            5.0210    12.1901    -9.8999 C       0      f0    -0.0016
    319 C            5.5310    10.9172   -10.5412 C       0      f0    -0.0068
    320 C            5.7413     9.6805    -9.7976 C       0      f0     0.0024
    321 C            5.9304    11.2610   -11.9011 C       0      f0     0.0126
    322 H            7.5485     8.8622   -10.6853 H       0      f0     0.0246
    323 C            7.9314    10.8914    12.7462 C       1      f1    -0.0022
    324 C            8.2620    13.0776   -11.9815 C       1      f1    -0.0052
    325 C            8.7840    11.7845   -12.3847 C       1      f1    -0.0050
    326 C           10.1540    11.4535   -11.9162 C       1      f1    -0.0028
    327 C           10.6054    10.1363   -12.2273 C       1      f1    -0.0014
    328 C           10.8283    12.2479   -10.8682 C       1      f1    -0.0029
    329 H           11.5157    10.2990    -9.5457 H       0      f0     0.0253
    330 C           11.6964     9.3307   -11.8704 C       1      f1    -0.0003
    331 C           12.2495    12.0854   -10.5283 C       0      f0     0.0043
    332 C           12.4517    10.6947    -9.9000 C       0      f0    -0.0181
    333 C           12.8012     9.8454   -11.1262 C       1      f1    -0.0001
    334 C           13.1926    12.8196   -11.2788 C       0      f0    -0.0004
    335 C           13.5704    10.4185    -8.6612 C       0      f0     0.0008
    336 C           14.0200     9.8556   -11.9583 C       1      f1     0.0013
    337 C          -13.1476   -12.4048    -7.2993 C       0      f0    -0.0013
    338 C          -12.8655    -9.6874    -4.8111 C       0      f0    -0.0027
    339 C          -12.4812   -12.9931    -4.2626 C       0      f0    -0.0032
    340 C          -11.8597   -12.2324    -6.6450 C       0      f0    -0.0028
    341 C          -11.8400   -11.9572    -5.1877 C       0      f0    -0.0024
    342 C          -11.7062   -10.6137    -4.6691 C       0      f0    -0.0006
    343 C          -11.5926    -9.2510    -8.6027 C       0      f0     0.0033
    344 C          -10.9256   -11.5397    -7.5474 C       0      f0    -0.0003
    345 H           -9.7613    -8.9044    -7.4490 H       0      f0     0.0247
    346 C           -9.4800   -11.6995    -7.3671 C       7      f7    -0.0013
    347 C           -8.8063   -12.6216    -6.4244 C       7      f7     0.0036
    348 C           -8.6461   -10.5355    -7.5794 C       7      f7    -0.0042
    349 C           -8.3562   -12.0825    -5.0650 C       7      f7    -0.0013
    350 C           -7.7629   -10.0496    -6.5259 C       7      f7    -0.0022
    351 C           -7.6903   -10.7403    -5.2755 C       7      f7    -0.0001
    352 C           -6.8473    -9.0821    -8.5338 C       7      f7    -0.0022
    353 C           -6.5500    -9.1963    -7.0614 C       7      f7     0.0029
    354 C           -6.5016   -10.2768    -4.4567 C       7      f7    -0.0060
    355 C           -5.5294   -12.6305    -7.3468 C       7      f7    -0.0026
    356 C           -5.5104   -12.9804    -5.9284 C       7      f7    -0.0001
    357 C           -5.3117   -10.6731    -5.2169 C       7      f7     0.0012
    358 C           -5.1538   -10.1255    -6.5849 C       7      f7     0.0014
    359 C           -4.9892   -12.0305    -4.8467 C       7      f7    -0.0007
    360 C           -4.8692   -11.3430    -7.4669 C       7      f7    -0.0043
    361 C           -4.0376    -9.1253    -6.1367 C       7      f7    -0.0644
    362 C           -3.3994   -11.5761    -7.7008 C       0      f0    -0.0011
    363 C           -2.8379    -9.3983    -5.4175 C       7      f7     0.0393
    364 C           -2.7301   -11.9130    -6.3860 C      11     f11     0.0018
    365 C           -2.2173   -10.6875    -5.7446 C      11     f11    -0.0030
    366 C           -0.7837   -10.9048    -5.5143 C      11     f11     0.0239
    367 C           -0.2147   -12.2397    -5.8968 C      11     f11    -0.0074
    368 C            0.2832    -9.9737    -5.6942 C      11     f11     0.0167
    369 C            1.1361   -12.1225    -6.3259 C      11     f11     0.0046
    370 C            1.5150   -10.7032    -6.1788 C      11     f11    -0.0031
    371 C            1.8083   -13.1916    -7.1344 C      11     f11    -0.0351
    372 C            2.9147   -12.4579    -8.1930 C      11     f11     0.0010
    373 C            2.8024   -10.2246    -6.7022 C      11     f11    -0.0008
    374 C            3.1543   -10.8031    -8.0909 C      11     f11    -0.0174
    375 H            3.8281   -11.7310    -6.0814 H       0      f0     0.0242
    376 C            4.2051   -13.1006    -7.7592 C       0      f0    -0.0033
    377 H            4.2008   -10.5628    -8.4596 H       0      f0     0.0214
    378 C            4.5415   -12.4704    -6.5540 C       0      f0    -0.0202
    379 C            5.9774   -12.2744    -6.5561 C       0      f0     0.0018
    380 H            6.0545    -9.3191    -4.8913 H       0      f0     0.0237
    381 C            6.1570   -10.3798    -4.6623 C       0      f0    -0.0204
    382 C            6.7093   -11.2038    -5.8948 C       0      f0     0.0001
    383 C            7.9270   -11.0021    -6.4878 C       0      f0    -0.0053
    384 C            8.5398   -11.8341    -7.6077 C       0      f0     0.0088
    385 C            8.9221   -10.1169    -5.8239 C      10     f10     0.0000
    386 C            9.3737    -8.8453    -6.3702 C      10     f10     0.0005
    387 C            9.2949   -13.0124    -7.2973 C       0      f0    -0.0579
    388 C            9.7449   -10.7975    -4.8208 C      10     f10     0.0052
    389 C           11.2455   -10.7498    -4.8069 C      10     f10    -0.0001
    390 C           11.6827    -9.4919    -5.4166 C      10     f10    -0.0015
    391 C           12.0867   -11.8902    -4.6511 C      10     f10     0.0043
    392 C           12.5857   -11.3527    -8.3480 C       0      f0     0.0021
    393 C           12.7539   -12.5296    -7.4582 C       0      f0    -0.0047
    394 C           13.0481    -9.4226    -5.9344 C      10     f10    -0.0017
    395 C           13.1583    -8.9530    -7.3170 C      10     f10    -0.0001
    396 C           13.5493   -11.7149    -5.1212 C      10     f10    -0.0058
    397 C           13.8712   -12.3798    -6.5247 C       0      f0     0.0017
    398 C           14.0306    -9.4872    -8.3627 C       0      f0     0.0006
    399 C           14.0617   -10.2535    -5.2468 C      10     f10    -0.0007
    400 C          -13.5948    -4.3638    -8.0783 C       0      f0    -0.0171
    401 C          -13.3616    -7.1536    -5.5893 C       0      f0     0.0009
    402 C          -13.0750    -7.2282    -8.0884 C       0      f0     0.0014
    403 C          -12.9229    -8.6741    -8.3560 C       0      f0     0.0005
    404 C          -12.7937    -8.1708    -4.6940 C       0      f0    -0.0003
    405 C          -12.9698    -6.5019    -6.8768 C       0      f0    -0.0052
    406 C          -12.8666    -4.5103    -4.6075 C       0      f0     0.0012
    407 C          -12.9269    -5.0201    -7.0086 C       0      f0     0.0118
    408 C          -10.5199    -8.4355    -8.0207 C       0      f0    -0.0212
    409 C          -10.3913    -7.1013    -8.4356 C       0      f0     0.0015
    410 C           -9.0791    -4.6785    -6.8689 C       0      f0    -0.0015
    411 C           -9.0852    -6.1242    -6.7001 C       0      f0    -0.0016
    412 C           -9.0056    -6.6522    -8.1001 C       0      f0    -0.0025
    413 C           -8.3874    -7.5192    -4.4863 C       0      f0     0.0048
    414 C           -8.1922    -6.9314    -5.8538 C       0      f0    -0.0081
    415 C           -6.8347    -6.6773    -6.3156 C       0      f0     0.0435
    416 C           -6.4162    -5.6441    -7.2738 C       0      f0     0.0111
    417 C           -6.0507    -7.9437    -6.3483 C       7      f7    -0.0483
    418 C           -4.7363    -7.9074    -5.9173 C       7      f7     0.2482
    419 O           -4.2455    -6.6945    -5.1379 O       7      f7    -0.5169
    420 C           -3.3771    -4.6290    -6.6792 C      19     f19     0.0489
    421 C           -1.9143    -5.1845    -4.6745 C       0      f0     0.0298
    422 C           -0.6203    -5.7059    -5.1483 C       4      f4    -0.0125
    423 H           -0.3097    -8.1033    -4.5299 H       0      f0     0.0456
    424 C           -0.3563    -5.3945    -7.5022 C       4      f4    -0.0000
    425 C           -0.3839    -6.3901    -6.4081 C       4      f4     0.0053
    426 C            0.1629    -8.5604    -5.3873 C       0      f0    -0.0113
    427 C            0.1781    -7.7254    -6.4977 C       0      f0    -0.0024
    428 C            0.3497    -4.6442    -4.8030 C       4      f4    -0.0008
    429 C            0.6306    -8.1131    -7.8794 C       0      f0    -0.0002
    430 C            1.9054    -8.7160    -8.3117 C      11     f11    -0.0030
    431 C            2.6567    -5.6247    -8.3512 C       0      f0    -0.0062
    432 C            3.1181    -8.0852    -7.7090 C      11     f11    -0.0006
    433 C            3.2340    -6.5848    -7.4902 C      11     f11    -0.0014
    434 C            3.4206    -8.8442    -6.5712 C      11     f11    -0.0015
    435 C            3.7319    -6.6047    -6.0386 C      11     f11    -0.0008
    436 C            3.7242    -7.8960    -5.4644 C      11     f11     0.0006
    437 C            4.4585    -5.5613    -5.3757 C       0      f0    -0.0010
    438 C            5.3852    -4.7671    -6.1478 C       0      f0    -0.0008
    439 C            6.3047    -5.4445    -7.0639 C      39     f39     0.0020
    440 C            6.7425    -4.8604    -8.3375 C      39     f39    -0.0007
    441 C            6.8218    -7.1986    -5.4377 C       0      f0    -0.0040
    442 C            7.0349    -6.7469    -6.7477 C      39     f39     0.0000
    443 C            7.9503    -7.3679    -7.7861 C      39     f39     0.0041
    444 C            8.1401    -5.2077    -8.4955 C      39     f39    -0.0040
    445 H            8.2396    -5.6908    -5.1252 H       0      f0     0.0246
    446 C            8.6790    -4.6938    -5.1960 C       0      f0    -0.0173
    447 C            8.9202    -8.3374    -7.6744 C       0      f0    -0.0022
    448 C            9.3210    -5.0614    -7.6837 C       0      f0    -0.0042
    449 C           10.6609    -5.3549    -8.2462 C       0      f0    -0.0001
    450 C           10.6779    -8.4732    -5.7864 C      10     f10    -0.0029
    451 C           11.1987    -7.8541    -8.5737 C       0      f0     0.0004
    452 C           11.5746    -7.3879    -6.1716 C      10     f10    -0.0008
    453 C           12.1738    -7.8746    -7.4828 C      10     f10     0.0006
    454 C           12.2674    -6.6208    -5.1501 C      41     f41    -0.0028
    455 C           13.7088    -6.3418    -5.0488 C      41     f41    -0.0023
    456 C           13.9403    -5.0782    -4.3985 C      41     f41     0.0039
    457 C           14.0930    -2.8643    -7.9493 C       2      f2     0.2065
    458 C          -13.3538    -0.7704    -8.3083 C       2      f2     0.1711
    459 O          -13.1312    -1.8528    -7.3016 O       2      f2    -0.4870
    460 C          -12.6257    -0.2153    -5.0366 C       2      f2     0.0830
    461 C          -12.2958    -4.1788    -5.9081 C       0      f0     0.0243
    462 C          -11.0860    -3.3928    -6.2486 C       0      f0     0.0393
    463 C          -10.3775    -0.3543    -6.4170 C       2      f2     0.0196
    464 C          -10.1589    -3.7650    -7.3935 C       0      f0    -0.0020
    465 C          -10.2394    -2.4549    -5.4205 C       0      f0     0.0009
    466 C           -9.3748    -1.3101    -5.9498 C       0      f0    -0.0050
    467 C           -8.3670    -4.2853    -4.5260 C       0      f0     0.0004
    468 C           -8.1322    -4.0306    -5.9478 C       0      f0     0.0007
    469 C           -7.9173    -1.0812    -6.0078 C       0      f0    -0.0025
    470 C           -6.9129    -3.2591    -6.3523 C      19     f19     0.0031
    471 C           -6.7585    -1.9269    -5.7976 C      19     f19     0.0017
    472 C           -5.9236    -4.2787    -6.8124 C      19     f19     0.0234
    473 C           -5.4454    -1.7475    -5.0042 C      19     f19    -0.0014
    474 C           -5.0212    -0.3916    -4.6080 C       0      f0    -0.0052
    475 C           -4.6527    -3.9765    -6.3151 C      19     f19     0.0290
    476 C           -4.1587    -2.6210    -5.8581 C      19     f19    -0.0027
    477 C           -3.5414    -0.0005    -4.4886 C       0      f0    -0.0036
    478 C           -3.4970    -1.9622    -7.0138 C      19     f19     0.0035
    479 C           -3.1202    -0.5430    -6.8456 C       0      f0     0.0025
    480 C           -3.0293    -4.1523    -8.0038 C      19     f19     0.0001
    481 C           -2.8956    -2.9612    -4.8204 C      19     f19    -0.0009
    482 C           -2.9384    -2.7099    -8.1425 C      19     f19     0.0131
    483 C           -2.4852    -0.2494    -5.5452 C       0      f0    -0.0016
    484 C           -2.5572    -4.2228    -5.5380 C      19     f19     0.0067
    485 C           -1.4809    -2.1475    -4.6318 C       0      f0    -0.0038
    486 C           -1.1616    -0.8586    -5.2901 C       0      f0    -0.0010
    487 C            0.0472    -1.2189    -8.2320 C       0      f0    -0.0033
    488 C            0.2121    -0.1754    -5.2900 C       9      f9    -0.0030
    489 C            0.5997    -4.3222    -7.1020 C       4      f4    -0.0038
    490 C            1.0623    -2.2903    -8.4828 C       0      f0    -0.0033
    491 C            1.0657    -3.7769    -8.3623 C       0      f0    -0.0023
    492 C            1.1395    -3.9570    -5.7925 C       4      f4    -0.0019
    493 C            2.3157    -1.6295    -8.4854 C       0      f0    -0.0014
    494 C            2.4491    -3.3150    -5.5517 C       4      f4    -0.0016
    495 C            3.5362    -2.9685    -6.5165 C      23     f23     0.0000
    496 C            3.4539    -2.0331    -7.6730 C      23     f23     0.0009
    497 C            4.7993    -1.6282    -8.1122 C      23     f23     0.0002
    498 C            4.9181    -3.3704    -6.3513 C      23     f23     0.0018
    499 C            5.6136    -2.3676    -7.1428 C      23     f23     0.0000
    500 C            6.9687    -1.8262    -6.9762 C      23     f23    -0.0024
    501 C            7.4211    -2.4810    -4.4738 C       0      f0    -0.0011
    502 C            7.7022    -1.1521    -8.0154 C      23     f23    -0.0025
    503 C            7.7597    -1.7979    -5.7533 C      23     f23    -0.0012
    504 C            9.1141    -1.3719    -6.0806 C      23     f23    -0.0058
    505 C            9.0641    -0.9179    -7.5079 C      23     f23    -0.0032
    506 C            9.3405    -4.2384    -6.3990 C       0      f0     0.0018
    507 C            9.9906    -0.0046    -8.1331 C       0      f0     0.0052
    508 C           10.1846    -2.0932    -5.3510 C       0      f0     0.0034
    509 C           10.4489    -3.2844    -6.1735 C       0      f0     0.0042
    510 C           11.4232    -4.1413    -8.3349 C       0      f0    -0.0071
    511 C           11.6347    -3.4501    -7.0739 C       0      f0    -0.0020
    512 C           11.4592    -0.0968    -7.9522 C       0      f0    -0.0095
    513 C           12.0318    -1.2706    -7.5831 C       0      f0     0.0175
    514 C           12.6007    -2.4043    -7.2814 C       0      f0     0.0039
    515 H          -13.8710     4.4096    -7.5389 H       0      f0     0.0226
    516 C          -13.6659     0.7228    -5.0392 C       2      f2    -0.0665
    517 C          -13.5000     4.3786    -6.5345 C       2      f2    -0.0214
    518 C          -13.3942     1.8015    -5.9163 C       2      f2     0.0055
    519 C          -12.9587     0.4934    -8.0960 C       2      f2    -0.0068
    520 C          -12.3413     1.1818    -6.7567 C       2      f2     0.0159
    521 C          -11.9852     4.3473    -6.3343 C       2      f2     0.0011
    522 C          -11.4359     2.2549    -7.5163 C       2      f2    -0.0055
    523 C          -11.5668     0.2221    -5.8695 C       2      f2     0.0027
    524 C          -10.9848     3.4106    -6.6790 C       2      f2    -0.0044
    525 C          -10.1673     1.5657    -7.9912 C       2      f2    -0.0011
    526 C           -9.8491     0.1455    -7.6894 C       2      f2     0.0011
    527 C           -9.6951     3.6830    -6.0516 C       2      f2    -0.0013
    528 C           -8.4604     2.9016    -5.9398 C       2      f2     0.0010
    529 C           -7.9783     2.1977    -4.6868 C      13     f13    -0.0017
    530 C           -7.4257     3.4838    -6.8338 C       2      f2    -0.0017
    531 C           -7.2702     0.2747    -6.1797 C       0      f0    -0.0012
    532 C           -7.1202     1.0103    -4.9476 C      13     f13     0.0017
    533 C           -6.3472     0.6196    -7.3029 C       0      f0     0.0021
    534 C           -6.1649     3.5173    -6.0581 C      25     f25     0.0034
    535 C           -5.1886     1.4923    -7.1113 C      25     f25    -0.0007
    536 C           -5.0986     2.5837    -6.1390 C      25     f25     0.0006
    537 C           -3.9736     1.5078    -7.9554 C      25     f25     0.0005
    538 C           -3.7656     4.1446    -4.6026 C      25     f25    -0.0005
    539 C           -3.7933     3.1973    -5.7448 C      25     f25     0.0011
    540 C           -3.1687     0.2938    -8.0805 C      25     f25     0.0025
    541 C           -2.9971     3.2611    -6.9220 C      25     f25     0.0023
    542 C           -3.0712     2.6810    -8.1252 C      25     f25     0.0007
    543 C            0.8475    -0.0204    -7.7941 C       0      f0    -0.0025
    544 C            0.9668     0.4577    -6.3891 C       9      f9    -0.0003
    545 C            2.1294     1.3004    -6.0255 C       9      f9    -0.0001
    546 C            2.7977     1.1042    -4.7125 C       9      f9    -0.0024
    547 C            2.7163     2.4281    -6.7789 C       9      f9    -0.0008
    548 C            3.2172     2.1596    -8.1393 C       0      f0     0.0016
    549 C            3.6419     3.4554    -6.2374 C       9      f9    -0.0000
    550 C            4.0173     1.8733    -4.2950 C       9      f9     0.0003
    551 C            4.3941     3.0650    -5.1199 C       9      f9     0.0006
    552 C            5.5315     4.0145    -4.9858 C       9      f9     0.0011
    553 C            5.9959     2.3807    -8.2423 C       0      f0     0.0028
    554 C            7.2930     2.7111    -8.2762 C       9      f9     0.0016
    555 C            7.5066     4.4751    -6.6000 C       9      f9    -0.0001
    556 C            7.4792     4.2982    -8.1286 C       9      f9     0.0001
    557 C            8.1809     3.5371    -5.7637 C       9      f9    -0.0028
    558 C            8.3941     1.8777    -7.6260 C       9      f9    -0.0003
    559 C            8.8787     2.2977    -6.3700 C       9      f9    -0.0042
    560 C            9.2936     1.2233    -8.5697 C       0      f0    -0.0023
    561 C            9.9346     1.7496    -5.4626 C       9      f9    -0.0028
    562 H           12.2320     0.6941    -8.1456 H       0      f0     0.0305
    563 C           12.6367     4.4175    -4.4235 C       2      f2    -0.0044
    564 C           13.1487     3.0778    -4.9145 C       2      f2    -0.0017
    565 C          -13.9539     3.0461    -5.8099 C       2      f2    -0.0065
    566 C          -14.0023     7.1645    -6.2904 C       2      f2    -0.0031
    567 C          -13.8935     5.7864    -5.7000 C       2      f2    -0.0035
    568 C          -12.9094     8.6989    -7.7298 C       0      f0     0.0015
    569 C          -12.8492     8.0210    -6.4682 C       2      f2     0.0031
    570 C          -12.5404     5.9188    -4.7754 C       2      f2    -0.0059
    571 C          -11.8362     7.1860    -4.3237 C       2      f2    -0.0047
    572 C          -11.7310     8.1344    -5.4125 C       2      f2    -0.0003
    573 C          -11.5486     5.4367    -5.6467 C       2      f2    -0.0008
    574 C          -10.3757     8.4881    -5.9085 C       0      f0     0.0000
    575 C          -10.2799     5.9719    -5.8397 C       2      f2     0.0016
    576 C           -9.7905     7.2388    -6.2838 C       2      f2     0.0047
    577 C           -9.2171     5.0927    -6.0232 C       2      f2     0.0008
    578 C           -8.4344     7.1238    -6.8453 C       2      f2     0.0001
    579 C           -8.2187     5.7046    -6.8341 C       2      f2     0.0006
    580 C           -7.6565     7.9989    -7.7127 C      21     f21     0.0005
    581 C           -7.5568     4.7123    -7.7287 C       2      f2     0.0003
    582 C           -6.2727     7.7283    -8.1068 C      21     f21     0.0002
    583 C           -5.9056     4.9045    -5.4771 C      25     f25     0.0011
    584 C           -5.6449     5.8621    -6.4208 C       0      f0    -0.0010
    585 C           -5.3250     6.8390    -7.3745 C      21     f21     0.0003
    586 C           -3.7775     6.9298    -7.7345 C      21     f21    -0.0007
    587 C           -3.0544     7.0499    -6.6603 C       0      f0     0.0002
    588 C           -2.7006     6.3981    -4.2904 C       0      f0    -0.0003
    589 C           -2.3261     7.1479    -5.5237 C       0      f0    -0.0009
    590 C           -1.6295     8.5025    -5.3278 C       0      f0    -0.0007
    591 C            0.4503     5.3487    -8.2176 C       0      f0    -0.0002
    592 C            1.4766     5.3548    -5.8193 C       0      f0    -0.0032
    593 C            1.4327     5.0980    -7.1297 C       0      f0     0.0007
    594 C            1.7051     5.5792    -4.6898 C       0      f0    -0.0021
    595 C            2.8713     5.4461    -7.6345 C       0      f0    -0.0010
    596 C            3.9433     4.6702    -7.1160 C       9      f9     0.0004
    597 C            4.6097     8.0769    -5.4085 C       0      f0    -0.0197
    598 H            5.1066     7.6440    -6.2701 H       0      f0     0.0230
    599 C            5.3163     5.0055    -7.3215 C       9      f9    -0.0019
    600 C            6.1142     4.6124    -6.1985 C       9      f9     0.0036
    601 C            7.1125     8.5049    -6.4072 C       2      f2    -0.0017
    602 C            7.3902     7.8258    -7.6859 C       2      f2    -0.0038
    603 C            8.1259     8.3092    -5.3100 C       2      f2     0.0093
    604 C            8.8575     7.5604    -7.8225 C       2      f2     0.0004
    605 C            8.8135     4.9923    -8.5687 C       2      f2    -0.0024
    606 C            9.3989     6.2864    -8.3793 C       2      f2    -0.0022
    607 C            9.4714     8.6733    -5.7086 C       2      f2     0.0204
    608 C            9.8863     8.2620    -7.0703 C       2      f2     0.0030
    609 C           10.8269     6.2962    -8.7346 C       2      f2    -0.0019
    610 C           11.2832     8.3805    -7.4447 C       2      f2     0.0024
    611 C           11.7940     7.4055    -8.3716 C       2      f2    -0.0013
    612 C           12.2586     7.0340    -5.0619 C       2      f2    -0.0017
    613 C           12.9509     5.7139    -5.0314 C       2      f2    -0.0074
    614 C           12.9765     7.8459    -5.9440 C       2      f2     0.0060
    615 C          -12.2199    11.1617    -7.9556 C       0      f0    -0.0205
    616 C          -11.9433     9.7415    -8.1395 C       0      f0     0.0022
    617 H          -11.4560    11.9541    -7.9267 H       0      f0     0.0217
    618 C           -9.8548     9.7599    -6.4905 C       0      f0    -0.0008
    619 C           -9.5662     9.6427    -7.9191 C      21     f21    -0.0000
    620 H           -9.0769    12.4929    -7.9650 H       0      f0     0.0199
    621 C           -8.8779    10.5810    -5.7231 C       2      f2    -0.0006
    622 C           -8.8064    10.6676    -4.3243 C       2      f2    -0.0003
    623 C           -8.5578    12.7164    -7.0131 C       0      f0    -0.0179
    624 C           -8.3384     9.0580    -8.4438 C      21     f21     0.0002
    625 C           -7.9478    11.6407    -6.1796 C       2      f2     0.0044
    626 C           -6.9972    11.8377    -5.1101 C       2      f2    -0.0001
    627 C           -5.6568    12.2264    -5.5214 C       0      f0    -0.0029
    628 C           -5.3226    12.9706    -8.4850 C      27     f27    -0.0034
    629 C           -4.3103    11.9535    -8.5265 C      27     f27    -0.0024
    630 C           -4.2876    11.7466    -5.1376 C       0      f0     0.0012
    631 C           -3.4791    11.4091    -7.4584 C      27     f27    -0.0046
    632 C           -3.1709    10.0467    -7.9409 C      27     f27    -0.0003
    633 C           -3.3125    12.1422    -6.1903 C       0      f0     0.0043
    634 C           -2.3262    13.2850    -6.0658 C      11     f11     0.0045
    635 C           -2.1241     9.0701    -7.6909 C      34     f34    -0.0008
    636 C           -1.1990     9.2358    -6.5337 C      34     f34     0.0018
    637 C           -0.8981    13.0221    -5.7167 C      11     f11     0.0055
    638 C           -0.1709    12.1134    -4.8432 C       4      f4     0.0049
    639 C            0.1759     9.5350    -6.9153 C      34     f34    -0.0014
    640 C            0.5444    10.8230    -4.9229 C       4      f4     0.0014
    641 C            0.5224     9.7391    -8.3835 C      34     f34    -0.0021
    642 C            1.1711     9.9648    -5.9631 C      34     f34    -0.0042
    643 H            1.0811    12.8317    -7.6924 H       0      f0     0.0232
    644 C            2.5736     9.5145    -6.3051 C      34     f34    -0.0061
    645 H            2.2567    12.6409    -6.3983 H       0      f0     0.0201
    646 C            2.9174     9.5168    -7.7112 C      34     f34    -0.0012
    647 C            3.5654     8.7663    -5.6392 C       0      f0     0.0004
    648 C            4.0474     8.7261    -8.1987 C       0      f0    -0.0047
    649 C            4.8743    12.3839    -8.5033 C       0      f0    -0.0048
    650 C            5.2951     9.5656    -8.3943 C       0      f0    -0.0019
    651 C            5.8361    10.4478    -7.3227 C       0      f0    -0.0039
    652 C            5.8418    11.9069    -7.5039 C       0      f0     0.0014
    653 C            6.5485     9.8622    -6.1938 C       0      f0     0.0099
    654 C            6.5689    13.0425    -6.9472 C       0      f0     0.0038
    655 C            6.6323    10.5544    -4.8985 C       0      f0     0.0093
    656 C            6.7998    11.9819    -4.8394 C       0      f0     0.0255
    657 C            7.5600    12.7217    -5.8740 C       0      f0    -0.0446
    658 C            8.9058    12.7055    -6.2641 C       0      f0     0.2691
    659 O            9.8142    11.6736    -5.7109 O       0      f0    -0.5169
    660 C           10.5696    13.1886    -7.9710 C       0      f0     0.0308
    661 C           10.5794     8.8083    -4.7736 C       2      f2     0.0466
    662 C           11.1906    11.0022    -5.9002 C       2      f2     0.2615
    663 C           11.5153     9.7890    -5.3834 C       2      f2    -0.0255
    664 C           11.8368    12.9544    -7.3501 C       0      f0     0.0236
    665 C           12.1833    11.5507    -6.8412 C       2      f2    -0.0497
    666 C           12.2630     9.1660    -6.5869 C       2      f2    -0.0077
    667 C           12.8833    10.4463    -7.3812 C       2      f2     0.0041
    668 C          -13.9007   -10.4879    -2.0686 C       0      f0     0.0023
    669 C          -13.8960   -12.5195    -3.8404 C      10     f10     0.0067
    670 C          -13.8052   -11.9159    -2.4378 C      10     f10     0.0010
    671 C          -13.4216   -12.9322    -1.4710 C      10     f10    -0.0038
    672 C          -12.7593    -9.6367    -2.1272 C       0      f0     0.0250
    673 C          -11.2911   -10.0071    -2.2952 C       3      f3     0.0247
    674 C          -10.7492   -10.5346    -3.5501 C       3      f3    -0.0035
    675 C          -10.3406   -10.0574    -1.2416 C       3      f3    -0.0408
    676 C           -9.5514   -11.2283    -3.1103 C       3      f3     0.0036
    677 C           -8.9641   -10.4569    -1.9063 C       3      f3     0.0043
    678 C           -8.6709   -12.2550    -3.6201 C       3      f3    -0.0026
    679 C           -8.3601    -9.0073    -2.2712 C       3      f3     0.0000
    680 C           -8.0144   -11.1812    -0.8991 C       3      f3    -0.0070
    681 C           -7.8453   -12.9149    -2.5610 C       3      f3    -0.0038
    682 C           -7.1951   -12.3164    -1.3984 C       3      f3    -0.0035
    683 C           -6.4634    -9.0180    -3.7278 C       0      f0     0.0043
    684 C           -5.8816   -12.8749    -0.8738 C       0      f0    -0.0040
    685 C           -5.4874    -8.8163    -2.6862 C      22     f22     0.0040
    686 C           -4.9533    -9.9914    -1.8650 C      22     f22    -0.0095
    687 C           -4.9130   -12.0625    -0.2034 C       0      f0    -0.0041
    688 C           -4.8231    -9.7579    -0.3982 C      22     f22     0.0152
    689 C           -4.6583   -12.1517    -3.4610 C       0      f0     0.0047
    690 C           -4.2148   -10.9540    -2.6295 C       0      f0     0.0023
    691 C           -3.4470   -12.4050    -0.2186 C      18     f18     0.0201
    692 C           -2.8448   -10.3452    -2.5774 C      18     f18     0.0229
    693 C           -2.3237   -11.5164    -0.4608 C      18     f18     0.0304
    694 C           -2.3569    -9.0466    -3.0095 C      18     f18     0.0375
    695 C           -2.1708   -10.4147    -1.2988 C      18     f18     0.0209
    696 C           -1.4066    -9.2950    -1.0456 C      18     f18     0.0599
    697 O            0.1324    -9.8981    -2.7193 O       4      f4    -0.5231
    698 C            0.1742   -12.4400    -3.3266 C       0      f0    -0.0276
    699 C            0.7416   -11.3170    -2.9183 C       4      f4     0.2279
    700 C            1.4348    -9.2029    -2.8848 C       4      f4     0.2414
    701 C            2.1714   -11.3189    -3.1298 C       4      f4    -0.0400
    702 C            2.5959    -9.9870    -3.1815 C       4      f4    -0.0463
    703 C            3.0551   -12.3408    -3.1755 C       4      f4     0.0058
    704 C            3.8955    -9.6822    -3.6907 C       4      f4     0.0085
    705 C            4.4060   -12.1243    -3.6442 C       4      f4    -0.0044
    706 C            4.8006   -10.7674    -4.0187 C       4      f4    -0.0034
    707 C            7.1676    -9.7397    -2.2344 C      31     f31    -0.0042
    708 C            6.9750   -13.0005    -1.4275 C       4      f4    -0.0002
    709 C            7.2412   -11.8750    -0.5924 C       0      f0    -0.0041
    710 C            7.1286   -10.5862    -3.4111 C       0      f0     0.0004
    711 C            7.6831   -10.5275    -1.1156 C      31     f31    -0.0011
    712 C            7.6497   -13.1622    -2.7555 C      10     f10    -0.0116
    713 C            7.9496   -11.7572    -3.3253 C      10     f10     0.0058
    714 C            8.7782    -9.9175    -0.3790 C      31     f31    -0.0018
    715 C            9.1878   -11.8981    -4.0478 C      10     f10    -0.0186
    716 C            9.9179   -10.7390     0.0302 C       0      f0    -0.0088
    717 C            9.9547   -13.1265    -3.8116 C      10     f10     0.0713
    718 C           10.8883   -11.4254    -0.9206 C       0      f0    -0.0040
    719 C           11.2562   -12.7561    -0.3182 C       0      f0     0.0116
    720 C           11.4069   -13.0428    -4.0539 C      10     f10    -0.0357
    721 C           11.9722   -10.6898    -1.3351 C       0      f0    -0.0027
    722 C           12.9988    -9.8515    -1.5837 C       0      f0    -0.0002
    723 C           13.1319    -8.9383    -0.3079 C       0      f0    -0.0003
    724 C          -13.3722    -7.2805    -1.1774 C       0      f0     0.0160
    725 C          -12.9908    -8.2113    -2.2488 C       0      f0     0.0055
    726 C          -12.9918    -5.9536    -1.5375 C       0      f0    -0.0050
    727 C          -12.8803    -4.5948    -0.7896 C       1      f1    -0.0064
    728 C          -12.5913    -7.5077    -3.4240 C       0      f0    -0.0038
    729 C          -12.4431    -6.1236    -2.8170 C       0      f0    -0.0000
    730 C          -11.9027    -5.0429    -3.6871 C       0      f0    -0.0066
    731 C          -10.5104    -4.7070    -3.3564 C       0      f0    -0.0042
    732 C           -9.4249    -5.2970    -4.1226 C       0      f0    -0.0042
    733 C           -9.1604    -4.2865     0.0602 C       1      f1     0.0358
    734 C           -8.7704    -6.4764    -3.5260 C       0      f0     0.0037
    735 C           -8.1831    -8.2856    -1.0722 C       3      f3    -0.0001
    736 C           -7.9144    -6.7898    -1.1060 C       3      f3     0.0001
    737 C           -7.9343    -8.6226    -3.6285 C       0      f0    -0.0011
    738 C           -7.7057    -6.3571    -2.4690 C       0      f0    -0.0091
    739 C           -6.2511    -6.3350    -2.7962 C      22     f22     0.0254
    740 C           -5.7432    -4.9919    -2.5835 C      22     f22     0.0107
    741 C           -5.4964    -7.4545    -2.1834 C      22     f22     0.0030
    742 C           -5.2793    -4.8116    -1.2207 C      22     f22    -0.0008
    743 C           -4.8626    -7.2701    -0.8489 C      22     f22    -0.0018
    744 C           -4.5491    -5.9089    -0.4867 C      22     f22    -0.0032
    745 C           -3.1387    -7.0983    -4.2251 C       7      f7     0.2425
    746 C           -2.5738    -8.4284    -4.3054 C       7      f7    -0.0588
    747 C           -2.4618    -6.0057    -3.5313 C       0      f0    -0.0358
    748 C           -1.6139    -8.4137    -2.0120 C      18     f18     0.0287
    749 C           -1.4985    -5.8941    -2.4608 C       4      f4    -0.0012
    750 C           -0.8803    -7.1347    -2.1045 C       4      f4    -0.0037
    751 C           -0.5631    -4.6831    -2.2248 C       4      f4     0.0005
    752 C            0.5593    -6.9552    -2.3629 C       4      f4     0.0283
    753 C            0.8743    -5.5526    -1.8965 C       4      f4    -0.0066
    754 C            1.1270    -5.9529    -0.3682 C       0      f0     0.0086
    755 C            1.6330    -7.8424    -2.6954 C       4      f4    -0.0578
    756 C            2.1085    -5.0691    -2.6985 C       4      f4     0.0045
    757 C            3.0438    -7.3493    -3.1018 C       4      f4     0.0043
    758 C            3.2872    -5.9009    -3.1141 C       4      f4     0.0027
    759 C            3.7556    -8.2224    -4.0284 C       4      f4    -0.0098
    760 C            4.3970    -5.2971    -3.8890 C       0      f0     0.0009
    761 C            5.4170    -4.5435    -3.1557 C       0      f0     0.0010
    762 H            5.6155    -8.5043    -1.4346 H       0      f0     0.0295
    763 C            6.4628    -6.9968    -2.9206 C      31     f31     0.0022
    764 C            6.4408    -5.4929    -2.6234 C      31     f31    -0.0028
    765 C            6.6551    -7.2540    -4.1764 C       0      f0    -0.0062
    766 C            6.6000    -8.2363    -1.9249 C      31     f31    -0.0161
    767 C            7.5749    -5.2123    -1.7379 C      31     f31    -0.0020
    768 C            7.8138    -7.6767    -1.0959 C      31     f31     0.0056
    769 C            8.0977    -6.3062    -0.9435 C      31     f31    -0.0061
    770 C            8.8326    -8.4587    -0.4424 C      31     f31    -0.0032
    771 C            9.3485    -6.2703    -0.1188 C      31     f31     0.0029
    772 H            9.6589    -6.5404    -3.2380 H       0      f0     0.0190
    773 C            9.9802    -7.5979    -0.0023 C      31     f31    -0.0047
    774 C           10.5518    -5.8456    -3.2054 C      41     f41    -0.0219
    775 C           10.8683    -4.9283    -2.1383 C      41     f41    -0.0012
    776 C           11.6476    -5.7535    -4.1274 C      41     f41     0.0027
    777 C           12.2061    -4.3988    -2.3634 C      41     f41     0.0090
    778 C           12.6957    -4.8215    -3.6885 C      41     f41     0.0048
    779 C           14.0394    -7.9037    -0.0891 C       0      f0     0.0367
    780 C          -13.8022    -3.5057    -1.4266 C       1      f1     0.0185
    781 C          -13.7366    -1.3424    -3.0795 C       2      f2     0.2302
    782 C          -13.7255    -2.4011    -2.2717 C       0      f0    -0.0302
    783 C          -12.5773    -1.0758    -3.8958 C       2      f2    -0.0443
    784 C          -11.5560    -3.8876    -0.5531 C       0      f0     0.0022
    785 C          -11.5730    -0.5055    -0.9660 C       0      f0     0.0164
    786 C          -11.2991    -1.4831    -3.3084 C       0      f0     0.0106
    787 C          -11.3773    -1.6356    -1.7816 C       0      f0    -0.0044
    788 C          -10.8743    -2.9591    -1.4404 C       0      f0    -0.0018
    789 C          -10.4700    -2.3938    -3.9720 C       0      f0    -0.0041
    790 C          -10.1260    -3.3757    -2.7120 C       0      f0    -0.0045
    791 C           -8.6325    -3.4424    -2.2924 C       0      f0    -0.0064
    792 C           -8.2803    -3.5970    -0.8927 C       0      f0    -0.0029
    793 C           -7.7282    -3.6034    -3.3863 C       0      f0    -0.0048
    794 C           -7.0625    -3.0041    -0.3163 C      13     f13     0.0200
    795 C           -6.2166    -3.7008    -3.2389 C       0      f0     0.0017
    796 C           -5.7052    -3.6019    -0.5306 C      13     f13     0.0035
    797 C           -5.2967    -2.8378    -3.8460 C      19     f19    -0.0010
    798 C           -4.8519    -2.5426    -0.0004 C      13     f13     0.0068
    799 C           -3.8477    -3.0149    -3.5673 C      19     f19     0.0035
    800 C           -3.4233    -2.5304    -0.1130 C      13     f13     0.0058
    801 C           -3.2407    -3.1785    -2.3548 C       0      f0    -0.0067
    802 C           -2.6365    -3.3662    -1.1425 C       0      f0    -0.0041
    803 C           -1.1251    -3.6227    -1.3333 C       4      f4    -0.0045
    804 C           -0.5328    -2.5631    -3.6631 C       4      f4    -0.0022
    805 C           -0.4396    -2.3224    -1.2026 C       4      f4     0.0126
    806 C           -0.4848    -1.3348    -0.0534 C       4      f4     0.0169
    807 C           -0.2838    -1.6792    -2.4685 C       4      f4     0.0051
    808 C            0.2136    -3.8801    -3.4912 C       4      f4    -0.0014
    809 C            0.3413    -0.3895    -2.7575 C       4      f4     0.0159
    810 C            1.0340    -0.3138    -4.1000 C       9      f9    -0.0002
    811 C            1.8055    -3.8129    -3.2634 C       4      f4     0.0093
    812 O            2.2554    -0.5573    -0.1744 O      36     f36    -0.4865
    813 C            2.5220    -0.2161    -4.0627 C       9      f9     0.0086
    814 C            2.8185    -3.2113    -4.1575 C       4      f4     0.0023
    815 C            3.6374    -0.9883    -3.4127 C       9      f9     0.0184
    816 C            4.0170    -2.4108    -3.6291 C       0      f0     0.0074
    817 C            5.2782    -2.9993    -3.1935 C       0      f0     0.0035
    818 C            5.4143    -0.9235    -0.4747 C       0      f0     0.0239
    819 C            5.5164    -0.5168    -1.8085 C       0      f0    -0.0037
    820 C            6.4584    -2.1827    -3.3897 C       0      f0    -0.0015
    821 C            6.7228    -0.8780    -2.6627 C       0      f0    -0.0027
    822 C            7.9209    -0.3237    -2.2319 C       0      f0    -0.0113
    823 C            8.3080    -3.6294    -4.2260 C       0      f0     0.0012
    824 C            8.5940    -4.1269    -1.8620 C       0      f0    -0.0049
    825 C            8.9025    -3.2212    -2.9174 C       0      f0    -0.0052
    826 C            9.1725     0.0743    -1.7531 C       0      f0     0.0124
    827 C            9.5041    -1.8879    -0.3382 C       0      f0    -0.0035
    828 C            9.8180    -2.0558    -2.8700 C       0      f0     0.0082
    829 C            9.7856    -1.2370    -1.5486 C       0      f0     0.0169
    830 C            9.9105    -4.2678    -1.2244 C       0      f0    -0.0061
    831 C           10.1826    -3.1776    -0.2984 C       0      f0     0.0042
    832 C           10.5670    -1.6216    -3.9946 C       0      f0    -0.0018
    833 H           11.1113    -0.6825    -3.9613 H       0      f0     0.0789
    834 C           13.1532    -4.2493    -1.1697 C       1      f1    -0.0013
    835 O           13.1954    -0.3407    -3.2291 O       2      f2    -0.4634
    836 C          -14.0254     3.2655    -2.0812 C      20     f20     0.0413
    837 C          -13.1865     4.0422    -2.8214 C       0      f0    -0.0173
    838 C          -13.3334     3.3639    -0.7851 C      20     f20     0.0288
    839 C          -11.9511     2.9088    -0.5534 C      20     f20     0.0077
    840 C          -11.6140     0.4862    -0.3779 C       0      f0     0.0260
    841 C          -10.9825     4.0207    -0.6228 C      20     f20     0.0392
    842 O           -8.8690     2.0604    -0.2519 O      13     f13    -0.5205
    843 C           -8.1434     2.6928    -3.3404 C      13     f13     0.0272
    844 C           -8.0236     4.0499    -2.7320 C       0      f0     0.0096
    845 C           -7.6048     1.7484    -1.0496 C      13     f13     0.2506
    846 C           -7.4225     1.7859    -2.4335 C      13     f13    -0.0548
    847 C           -6.7235     4.4686    -2.1682 C       0      f0     0.0022
    848 C           -6.3982     1.3004    -0.5494 C      13     f13    -0.0740
    849 C           -6.0698     1.2672    -2.7779 C      13     f13    -0.0001
    850 C           -5.9906     0.5773    -4.1050 C      13     f13    -0.0040
    851 C           -5.3353     1.1472    -1.5283 C      13     f13    -0.0008
    852 C           -3.9420     1.2809    -0.9133 C      24     f24    -0.0066
    853 C           -3.6906     2.6417    -0.2976 C      24     f24     0.0007
    854 C           -3.1803     0.7000    -3.3953 C       0      f0    -0.0090
    855 C           -2.9796     1.3938    -2.2086 C      24     f24    -0.0081
    856 C           -2.6118     3.3835    -0.9350 C      24     f24     0.0170
    857 C           -2.0929     2.5616    -2.0200 C      24     f24     0.0043
    858 C           -1.0000     3.2702    -2.7253 C      24     f24    -0.0024
    859 C           -0.2744     0.1420    -0.4706 C       4      f4    -0.0231
    860 C            0.2167     0.6463    -1.7551 C       4      f4     0.0304
    861 C            0.2692     3.2734    -1.9236 C      24     f24     0.0104
    862 C            0.7432     4.5353    -1.2823 C      24     f24     0.0369
    863 C            0.8564     1.9892    -1.6437 C       0      f0     0.0289
    864 C            2.0448     1.9441    -0.7978 C       0      f0    -0.0140
    865 C            3.1017     3.9815    -1.7994 C       0      f0     0.0012
    866 C            3.1748     2.8692    -0.8600 C       0      f0     0.0097
    867 C            4.4338    -0.0182    -2.6939 C       9      f9     0.0215
    868 C            4.5707     1.4370    -3.0339 C       9      f9    -0.0021
    869 C            5.3872     3.7404    -2.7401 C       0      f0    -0.0038
    870 C            5.4249     2.3416    -2.3036 C       0      f0    -0.0019
    871 C            5.9394     2.0943    -0.8975 C       0      f0    -0.0005
    872 C            6.4645     4.1495    -3.8140 C       9      f9    -0.0041
    873 C            7.2220     1.9051    -0.4571 C       0      f0    -0.0118
    874 C            7.8665     3.4800    -4.3246 C       9      f9    -0.0023
    875 C            8.9029     2.9806    -3.5280 C       9      f9    -0.0016
    876 C            9.2393     3.4561    -2.1616 C       9      f9     0.0066
    877 C            9.7404     1.3318    -0.8717 C       9      f9    -0.0343
    878 C           10.1975     2.5053    -1.6133 C       9      f9    -0.0194
    879 C           10.2058     2.3411    -4.1285 C       9      f9    -0.0062
    880 C           11.0881     1.0507    -0.1342 C       9      f9     0.2502
    881 C           11.4184     2.0155    -3.3908 C       9      f9     0.0161
    882 C           11.6108     2.3969    -1.9187 C       9      f9     0.1861
    883 O           12.2735     1.2399    -0.9385 O       9      f9    -0.4150
    884 C           12.6532     1.9290    -4.1423 C       2      f2    -0.0422
    885 C           12.6515     3.8063    -1.9951 C      20     f20    -0.0079
    886 C           13.4709     0.7740    -4.1170 C       2      f2     0.2730
    887 C          -13.9517     7.8247    -0.5535 C      10     f10     0.0169
    888 C          -13.7224     4.6881    -0.3498 C      20     f20     0.0008
    889 C          -12.6909     7.2115    -0.2811 C      20     f20    -0.0082
    890 C          -12.7243     5.7664    -0.0387 C      20     f20     0.0021
    891 C          -12.3671     4.8725    -3.4847 C       2      f2     0.0031
    892 C          -11.4605     7.9987    -0.1840 C      20     f20     0.0022
    893 C          -11.2097     5.4206    -2.8279 C       2      f2    -0.0068
    894 C          -10.8993     6.7614    -3.3040 C       2      f2    -0.0023
    895 C          -10.4299     4.5347    -1.8990 C       2      f2     0.0085
    896 C           -9.6435     7.3017    -2.8261 C       2      f2     0.0007
    897 C           -9.0499     4.9584    -2.1447 C       2      f2     0.0138
    898 C           -8.9420     8.5181    -3.2313 C       2      f2    -0.0005
    899 C           -8.7704     6.4209    -2.0299 C       2      f2     0.0001
    900 C           -7.5887     6.9762    -1.3118 C       2      f2     0.0032
    901 C           -7.5249     8.7665    -2.9978 C       2      f2    -0.0007
    902 C           -6.7441     7.8827    -2.1067 C       2      f2    -0.0018
    903 C           -6.6464     4.7867    -0.7430 C       0      f0     0.0053
    904 C           -5.5684     4.9916    -2.9220 C       0      f0    -0.0002
    905 C           -5.3501     8.1883    -2.3421 C       2      f2    -0.0012
    906 C           -5.3209     5.4394    -0.6067 C       0      f0    -0.0086
    907 C           -5.0689     4.6568    -4.2520 C      25     f25     0.0005
    908 C           -4.8136     5.7868    -1.9603 C       0      f0    -0.0042
    909 C           -4.3235     7.1388    -2.3546 C       0      f0    -0.0020
    910 C           -3.1523     7.2959    -3.1944 C       0      f0    -0.0033
    911 C           -3.0981     7.0628    -0.1457 C       0      f0    -0.0063
    912 C           -2.9794     8.3983    -0.4738 C       0      f0     0.0061
    913 C           -2.6585     4.9389    -4.0601 C       0      f0    -0.0020
    914 C           -2.3048     8.4821    -2.9325 C       0      f0     0.0146
    915 C           -2.2409     4.7922    -0.7831 C      24     f24     0.0147
    916 C           -1.5639     4.5905    -3.1196 C      24     f24    -0.0041
    917 C           -1.3815     5.3675    -1.8505 C      24     f24    -0.0004
    918 C            0.0219     5.7290    -1.6792 C      24     f24    -0.0003
    919 C            0.0827     8.8396    -3.5353 C       0      f0     0.0001
    920 C            0.5449     7.6477    -3.0769 C       0      f0    -0.0023
    921 C            0.9339     6.4858    -2.5982 C       0      f0    -0.0046
    922 C            2.1212     5.8342    -3.4418 C       0      f0    -0.0029
    923 C            2.1607     4.8920    -1.1255 C       0      f0     0.0035
    924 C            3.5969     5.7816    -3.2110 C       0      f0    -0.0012
    925 C            4.1850     4.5561    -2.6155 C       0      f0     0.0012
    926 C            4.1941     7.0867    -3.0185 C      42     f42    -0.0042
    927 C            4.4344     7.6358    -1.7178 C      42     f42    -0.0045
    928 C            4.9193     6.9210    -0.4759 C      42     f42    -0.0037
    929 C            5.2494     7.7196    -3.9792 C      42     f42     0.0045
    930 C            5.2649     8.8256    -1.8457 C      42     f42    -0.0030
    931 C            6.6457     6.9029    -3.9279 C       0      f0     0.0016
    932 C            6.9817     5.6027    -3.3151 C       0      f0    -0.0036
    933 C            7.9215     7.5469    -4.0838 C       0      f0    -0.0007
    934 C            8.0948     5.7916    -2.4589 C       0      f0    -0.0035
    935 C            8.7386     7.6069    -0.1685 C       0      f0    -0.0045
    936 C            8.8127     4.7946    -1.6389 C       0      f0    -0.0125
    937 C            8.7765     8.0421    -1.5668 C       0      f0     0.0031
    938 C            8.9038     7.0896    -2.8631 C       0      f0     0.0001
    939 C            9.7551     5.2959    -0.6391 C       0      f0     0.0294
    940 C           10.3197     6.6943    -3.3883 C       0      f0     0.0002
    941 C           11.0014     5.6737    -1.2467 C      20     f20     0.0017
    942 C           11.0635     5.6111    -2.7211 C      20     f20    -0.0045
    943 C           11.0687     7.5188    -4.2476 C       2      f2    -0.0060
    944 C           11.9664     8.2503    -0.5454 C      10     f10     0.0252
    945 C           12.1205     4.6846    -3.0871 C      20     f20    -0.0115
    946 C           12.2867     5.8142    -0.5420 C      20     f20     0.0304
    947 C           12.9071     7.1535    -0.6749 C      10     f10    -0.0176
    948 C           13.1405     4.6933    -0.8566 C      20     f20     0.0372
    949 C          -14.0030    12.4649    -2.0794 C      10     f10     0.0382
    950 C          -13.5682    10.3719    -0.7249 C      10     f10     0.0564
    951 C          -12.2902    10.5666    -0.1850 C       0      f0     0.0254
    952 C          -11.8342    12.5254    -3.7450 C       0      f0    -0.0022
    953 C          -11.3671     9.4415    -0.4987 C       0      f0    -0.0063
    954 C          -11.3098    11.4602    -3.2848 C       0      f0    -0.0028
    955 C          -10.7444    10.3272    -2.8205 C       0      f0    -0.0029
    956 C          -10.3729     9.9872    -1.4233 C       0      f0    -0.0019
    957 C           -9.6556     9.7221    -3.6830 C       2      f2    -0.0008
    958 C           -9.1092    10.5123    -0.8213 C       0      f0    -0.0006
    959 C           -8.4961    11.5032    -1.5930 C       0      f0    -0.0022
    960 C           -7.8813    12.1770    -2.5140 C       0      f0    -0.0018
    961 C           -7.4168    11.2277    -3.7630 C       2      f2     0.0005
    962 C           -6.7075     9.8791    -3.4484 C       2      f2     0.0004
    963 C           -5.3635     9.5441    -3.0414 C       2      f2    -0.0005
    964 C           -5.0950    12.7654    -1.6489 C       0      f0     0.0061
    965 C           -4.7001    11.3440    -1.4470 C       0      f0     0.0140
    966 C           -4.4366    10.6904    -2.7530 C       0      f0     0.0112
    967 C           -4.6530    13.0701    -2.9899 C       0      f0     0.0119
    968 C           -4.2508    11.8007    -3.6690 C       0      f0     0.0226
    969 C           -4.1199    10.7802    -0.2124 C       3      f3     0.0072
    970 C           -2.0989     9.0185    -1.6099 C       0      f0    -0.0474
    971 O           -1.5447    11.9531    -1.6816 O       0      f0    -0.4443
    972 C           -1.7765    10.4160    -1.4851 C       0      f0     0.1381
    973 C           -1.3855     8.9410    -3.9817 C       0      f0     0.0076
    974 C           -1.1285    11.2045    -0.4943 C       0      f0     0.1810
    975 C            0.2660    12.7790    -3.5858 C       4      f4     0.0624
    976 C            0.9227    10.0757    -3.7019 C       4      f4     0.0027
    977 C            1.4242    12.3470    -2.8094 C       4      f4     0.0058
    978 C            1.5536    10.8754    -2.6165 C       4      f4     0.0126
    979 H            1.9559     9.3052    -1.0478 H       0      f0     0.0217
    980 C            2.1442    10.3252    -1.4201 C       4      f4    -0.0216
    981 C            2.5845    13.1099    -2.4166 C       4      f4    -0.0051
    982 C            2.7751    11.3573    -0.6069 C       4      f4     0.0054
    983 C            3.4272    12.4054    -1.4779 C       4      f4    -0.0011
    984 C            4.7925    12.6367    -1.9257 C       4      f4    -0.0045
    985 C            5.1617    13.2926    -3.2781 C       4      f4    -0.0043
    986 C            5.6555     9.0376    -3.2575 C      42     f42    -0.0017
    987 C            5.9145    12.6040    -1.0527 C       4      f4    -0.0024
    988 C            5.9145     9.0262    -0.5711 C      42     f42    -0.0017
    989 C            6.0888    11.5611     0.0158 C       0      f0    -0.0019
    990 C            6.4911    12.9342    -3.7258 C       4      f4    -0.0045
    991 C            6.6749    10.2621    -0.3344 C       0      f0    -0.0026
    992 C            6.7643     9.8280    -3.5913 C       0      f0     0.0012
    993 C            8.1194    10.1160    -2.9283 C       0      f0     0.0030
    994 C            8.1327    10.2594    -0.4403 C       0      f0     0.0015
    995 C            8.6849    11.3275    -3.0215 C       0      f0     0.0722
    996 C            8.4364     9.4096    -1.6119 C       0      f0     0.0119
    997 C            9.0611    12.6045    -3.0905 C      10     f10     0.0326
    998 H            9.2518    12.7876    -0.3733 H       0      f0     0.0257
    999 C           10.3143    12.7856    -0.0711 C       0      f0     0.0012
   1000 O           11.5535    11.3484    -2.7246 O      10     f10    -0.5033
   1001 C           12.1880    12.5129    -3.4676 C      10     f10     0.2505
   1002 C           12.5623    10.6567    -1.8498 C      10     f10     0.2593
   1003 C           12.5854     9.3657    -1.2454 C      10     f10    -0.0393
   1004 C           13.5244    12.8535    -3.3003 C      10     f10    -0.0656
   1005 C           13.7592    11.2472    -1.3981 C      10     f10    -0.0667
   1006 C           13.9780     9.1612    -0.8770 C      10     f10     0.0260
   1007 C          -13.6324   -10.1937     2.3414 C       0      f0    -0.0276
   1008 C          -13.3427   -12.6873    -0.0038 C       0      f0     0.0090
   1009 C          -13.3382   -11.2173     3.4042 C       0      f0    -0.0167
   1010 C          -12.2560   -10.3860     1.6545 C       3      f3     0.2364
   1011 O          -11.9110    -9.2876     0.7073 O       3      f3    -0.5126
   1012 C          -11.4099   -12.8059     1.6409 C       3      f3     0.0138
   1013 C          -11.3758   -11.4146     2.1096 C       3      f3    -0.0640
   1014 H          -11.0277    -9.7408     3.9857 H       0      f0     0.0219
   1015 C          -10.5398    -9.7334     0.1293 C       3      f3     0.2350
   1016 C          -10.0054    -9.8351     3.5522 C       3      f3    -0.0187
   1017 C           -9.9079   -10.8102     2.3119 C       3      f3     0.0310
   1018 C           -9.5334   -10.3251     0.8905 C       3      f3    -0.0544
   1019 C           -8.8688    -9.5774     4.2617 C       3      f3     0.0006
   1020 C           -8.8004   -11.9272     2.6064 C       3      f3    -0.0043
   1021 C           -8.1675   -10.3961     0.3402 C       3      f3     0.0074
   1022 C           -7.9145    -8.9532     0.1908 C       3      f3    -0.0051
   1023 C           -7.5226   -11.3510     2.7267 C       3      f3     0.0021
   1024 C           -7.5052    -9.8892     3.3022 C       3      f3    -0.0007
   1025 C           -6.2687   -12.0618     2.4241 C       3      f3    -0.0045
   1026 C           -6.2213    -9.8996     4.1367 C       3      f3    -0.0045
   1027 C           -5.1845   -11.0662     2.0593 C       3      f3     0.0111
   1028 C           -5.0344   -10.2653     3.3227 C       3      f3     0.0124
   1029 C           -5.0721   -10.8495     0.6190 C       0      f0     0.0025
   1030 O           -2.3935    -8.9073     1.8270 O      22     f22    -0.5091
   1031 C           -1.4856   -11.3772     0.6463 C      18     f18     0.0190
   1032 C           -1.2893   -12.3851     1.6121 C      18     f18     0.0106
   1033 C           -0.6885   -11.7720     2.7009 C      18     f18    -0.0023
   1034 C           -0.7145   -10.2803     0.9224 C      18     f18     0.0469
   1035 C           -0.6145    -9.1765     0.1081 C      18     f18     0.0323
   1036 C           -0.1725   -12.4663     3.8721 C       0      f0    -0.0020
   1037 C           -0.4247   -10.4409     2.2764 C      18     f18     0.0315
   1038 C            0.0290    -9.3707     3.0686 C      18     f18     0.0212
   1039 C            2.2393   -13.0658     2.3591 C       0      f0     0.0001
   1040 H            2.2892   -11.5029     0.8672 H       0      f0     0.0264
   1041 C            2.7741   -12.4145     1.3410 C       0      f0    -0.0181
   1042 H            3.6442    -8.9126     3.8492 H       0      f0     0.0398
   1043 C            4.2337   -12.8283     1.2229 C       0      f0     0.0069
   1044 H            4.6048   -11.0080     0.1611 H       0      f0     0.0264
   1045 C            4.2612    -9.7889     3.9983 C       1      f1     0.0033
   1046 C            5.0093   -11.8527     0.6345 C       0      f0    -0.0232
   1047 C            5.4406   -10.0180     3.2149 C       1      f1    -0.0418
   1048 C            5.4660   -12.4342     3.9906 C       1      f1    -0.0012
   1049 C            5.9008   -11.4535     3.0357 C       1      f1     0.0032
   1050 C            6.2763    -8.9991     2.7035 C       1      f1     0.2340
   1051 C            6.4869   -11.9813     0.6780 C       0      f0     0.0043
   1052 C            6.9924   -11.6852     2.0537 C       1      f1    -0.0083
   1053 C            7.6604    -9.3571     2.5859 C       1      f1    -0.0598
   1054 C            8.0619   -10.7423     2.4542 C       1      f1     0.0086
   1055 C            9.5352   -10.9404     2.5439 C       0      f0    -0.0083
   1056 C            9.9889   -10.6222     3.9057 C       0      f0    -0.0042
   1057 C           10.2898   -10.3877     1.4261 C       0      f0    -0.0036
   1058 C           10.6042    -9.3147     4.0164 C       1      f1    -0.0024
   1059 C           11.3367    -9.3191     1.3414 C       0      f0    -0.0088
   1060 H           11.7991   -12.1751     2.8535 H       0      f0     0.0208
   1061 C           11.8423   -12.8101     3.7163 C       1      f1    -0.0200
   1062 C           12.4237   -12.9835     0.5224 C       0      f0    -0.0040
   1063 C           12.6647    -9.7503     0.8142 C       0      f0     0.0020
   1064 C           13.5466   -10.8363     1.3467 C       0      f0     0.0058
   1065 C           13.6682   -12.1271     0.6996 C       0      f0    -0.0001
   1066 C          -13.8980    -8.5010     2.6305 C       1      f1     0.0318
   1067 C          -13.6079    -4.9392     0.7233 C       1      f1    -0.0048
   1068 C          -13.2776    -6.2839     1.3446 C       1      f1     0.0160
   1069 C          -12.7431    -7.9994     3.4826 C       1      f1     0.0045
   1070 C          -11.8607    -6.4203     1.6737 C       1      f1     0.0206
   1071 C          -11.6720    -7.4706     2.6882 C       1      f1     0.0455
   1072 C          -10.7739    -5.6775     1.1560 C       1      f1     0.0083
   1073 C          -10.5453    -4.6416     0.1195 C       1      f1    -0.0043
   1074 C          -10.5721    -7.0545     3.4510 C       1      f1    -0.0141
   1075 C           -9.5449    -6.2030     3.0422 C       1      f1     0.0325
   1076 C           -9.5121    -5.9340     1.6929 C       1      f1    -0.0010
   1077 C           -9.2475    -5.1696     3.9515 C       1      f1    -0.0646
   1078 C           -8.5607    -5.3227     0.9004 C       1      f1     0.0537
   1079 C           -7.5850    -6.0950     0.1523 C       3      f3    -0.0074
   1080 C           -7.1845    -8.2446     1.2387 C       3      f3    -0.0040
   1081 C           -7.0804    -8.5904     2.5816 C       3      f3    -0.0021
   1082 C           -6.7328    -6.8724     1.0894 C       3      f3    -0.0015
   1083 C           -6.3561    -7.5016     3.2142 C       3      f3    -0.0055
   1084 C           -6.1113    -6.3013     2.3123 C       3      f3     0.0136
   1085 C           -4.8559    -5.5103     2.2076 C       0      f0     0.0146
   1086 H           -4.5041    -8.4221     1.7199 H       0      f0     0.0061
   1087 C           -4.4004    -8.4057    -0.0869 C      22     f22    -0.0481
   1088 C           -4.2357    -5.0272     3.4525 C       0      f0     0.0203
   1089 C           -4.1828    -5.5860     0.9115 C      22     f22     0.0083
   1090 C           -3.5549    -8.1346     1.1961 C      22     f22     0.2089
   1091 C           -3.2742    -6.6227     1.3547 C      22     f22    -0.0287
   1092 C           -2.2152    -6.5024     2.2013 C      22     f22    -0.0284
   1093 C           -1.8338    -5.2222     2.7989 C       0      f0     0.0036
   1094 C           -1.8674    -7.6304     3.9657 C       0      f0    -0.0307
   1095 C           -1.5649    -7.7853     2.5037 C      22     f22     0.2139
   1096 C           -0.4258    -4.9414     3.1404 C       8      f8    -0.0064
   1097 C            0.0135    -8.0496     2.3557 C      18     f18    -0.0481
   1098 C            0.1315    -8.1597     0.8596 C      18     f18     0.0159
   1099 C            0.2242    -5.7412     4.2656 C       8      f8    -0.0047
   1100 C            0.6528    -7.0695     0.2503 C       0      f0    -0.0054
   1101 H            0.7268    -7.2834     2.7319 H       0      f0     0.0282
   1102 C            4.6823    -4.8856     3.6650 C       0      f0     0.0279
   1103 O            5.8252    -7.5064     2.6555 O       1      f1    -0.5108
   1104 C            6.8400    -5.1723     2.3975 C       1      f1    -0.0274
   1105 C            6.9737    -6.5842     2.4584 C       1      f1     0.2834
   1106 C            8.1397    -4.6879     2.4035 C       1      f1     0.0367
   1107 C            8.2568    -6.8945     2.4874 C       1      f1    -0.1019
   1108 C            8.6500    -8.2413     2.7930 C       1      f1     0.0670
   1109 C            9.1578    -5.7126     2.3336 C       1      f1     0.2412
   1110 C            9.7511    -5.4968     1.0533 C       0      f0    -0.0613
   1111 C            9.9123    -8.2966     3.4319 C       1      f1    -0.0319
   1112 O           10.2154    -5.6081     3.4123 O       1      f1    -0.4427
   1113 C           10.9033    -7.0248     3.6583 C       1      f1     0.2132
   1114 C           10.9836    -4.9676     1.0928 C       0      f0     0.0679
   1115 C           11.0851    -7.9414     0.9176 C       0      f0    -0.0014
   1116 C           12.1898    -7.3105     2.8278 C       1      f1     0.0030
   1117 C           12.1226    -5.6722     0.7305 C       1      f1    -0.0067
   1118 C           12.3208    -6.9976     1.3692 C       1      f1     0.0069
   1119 C           12.9518    -8.3509     3.2816 C       1      f1     0.0037
   1120 C           13.1815    -5.0078     0.0103 C       1      f1    -0.0033
   1121 C           14.0439    -7.4603     1.3412 C       1      f1     0.0169
   1122 C          -13.7952    -3.7947     1.7795 C      32     f32     0.0284
   1123 C          -13.2884    -4.2052     4.3837 C      32     f32     0.2513
   1124 C          -12.9546    -1.1746     2.8186 C      32     f32    -0.0056
   1125 C          -13.1260    -3.6438     3.0725 C      32     f32    -0.0533
   1126 C          -12.3177    -2.4056     3.2411 C      32     f32     0.0073
   1127 C           -9.3139     0.1818     3.1231 C      13     f13    -0.0232
   1128 C           -8.7677    -3.7393     3.6222 C       1      f1     0.3481
   1129 O           -8.4570    -3.3268     2.4923 O       0      f0    -0.4612
   1130 C           -7.9606     0.0310     2.6967 C      13     f13     0.2245
   1131 H           -7.9265    -1.0959     0.6635 H       0      f0     0.0483
   1132 C           -7.0630    -1.8029     0.4267 C      13     f13     0.0436
   1133 O           -6.9242    -0.9977     3.2578 O       0      f0    -0.4231
   1134 C           -6.0988    -0.3678     4.2865 C       4      f4     0.1762
   1135 C           -5.7063    -1.4301     0.5469 C      13     f13     0.0350
   1136 C           -5.2337    -0.0521     0.8060 C      13     f13     0.0494
   1137 C           -4.0507     0.0267     0.0734 C      13     f13     0.0010
   1138 O           -3.6386    -0.5605     3.1613 O       4      f4    -0.4467
   1139 C           -3.0539    -1.0891     0.0702 C      13     f13     0.0121
   1140 C           -2.9073    -4.5229     3.5298 C       0      f0    -0.0005
   1141 H           -2.6315    -4.1395     4.5113 H       0      f0     0.0300
   1142 C           -1.7809    -1.0330     0.7186 C       4      f4     0.0171
   1143 C            0.0737    -3.6449     2.9920 C       8      f8     0.0027
   1144 C            0.1479    -2.7349     1.9948 C       0      f0     0.0007
   1145 C            0.4762    -1.8145     1.2238 C       0      f0    -0.0092
   1146 C            1.1434    -3.2911     4.2270 C       8      f8    -0.0053
   1147 C            1.9032    -1.1844     1.2678 C      36     f36     0.1682
   1148 C            2.3011    -4.2817     4.2077 C       8      f8     0.0001
   1149 C            2.4198    -1.0229     4.0440 C       0      f0    -0.0111
   1150 H            2.6122    -2.0421     1.3937 H       0      f0     0.0126
   1151 C            3.6259    -3.8946     3.7194 C       0      f0    -0.0092
   1152 C            3.7974    -1.3022     3.9599 C       0      f0    -0.0067
   1153 C            4.2899    -2.5691     3.4133 C       0      f0    -0.0040
   1154 H            4.2145    -1.3314     1.1822 H       0      f0     0.0438
   1155 C            5.2800    -1.2865     0.8104 C       0      f0    -0.0264
   1156 C            5.5483    -2.8672     2.7383 C       0      f0    -0.0016
   1157 C            5.7484    -4.2713     2.8727 C       0      f0     0.0602
   1158 C            6.2016    -2.1772     1.5805 C       0      f0     0.0011
   1159 C            7.5762    -2.3666     1.3205 C       0      f0    -0.0084
   1160 H            7.8331    -0.5183     0.1906 H       0      f0     0.0188
   1161 C            8.4594    -3.3494     2.0642 C       0      f0     0.0182
   1162 C            8.4650    -1.2677     0.6778 C       0      f0    -0.0200
   1163 C            9.2947    -0.5466     1.8514 C       0      f0    -0.0051
   1164 C            9.3773    -2.7041     3.0275 C       0      f0    -0.0120
   1165 C           10.1599    -1.5053     2.5943 C       0      f0    -0.0033
   1166 C           11.1198    -3.6132     0.7632 C       0      f0    -0.0096
   1167 C           11.5368    -1.6117     2.1278 C      32     f32     0.0100
   1168 C           12.1005    -2.6956     1.3084 C      32     f32     0.0201
   1169 C           12.5867    -0.5772     2.3477 C      32     f32    -0.0038
   1170 C           13.5592    -2.5800     1.5525 C      32     f32    -0.0013
   1171 C           13.8850    -1.3116     2.1684 C      32     f32     0.0120
   1172 C          -13.1351     2.4923     3.0593 C      16     f16     0.0003
   1173 C          -12.3721     0.0829     3.2457 C      16     f16     0.0003
   1174 C          -12.5187     1.3087     2.4339 C      16     f16     0.0047
   1175 C          -12.2997     2.7223     4.2054 C      16     f16    -0.0058
   1176 C          -11.5700     1.7206     0.2460 C       0      f0     0.0415
   1177 C          -11.2308     1.4774     1.6899 C       0      f0     0.0160
   1178 C           -9.8593     1.0693     2.0473 C      13     f13    -0.0471
   1179 C           -8.7525     1.3785     1.0904 C      13     f13     0.2468
   1180 C           -7.5791     0.9176     1.5968 C      13     f13    -0.0925
   1181 C           -7.3228     4.3838     2.5442 C      16     f16    -0.0017
   1182 C           -6.3626     3.5607     2.0445 C       0      f0     0.0263
   1183 C           -6.1281     1.2170     0.9851 C      13     f13     0.0464
   1184 C           -5.5883     2.7408     1.3463 C       0      f0     0.0035
   1185 C           -4.7691    -0.0641     4.0783 C       4      f4     0.1364
   1186 C           -4.4200     3.3947     0.6887 C      24     f24     0.0135
   1187 C           -3.4430     1.6418     4.0742 C       4      f4     0.1626
   1188 C           -2.8580     0.7074     3.3359 C       4      f4     0.1811
   1189 C           -1.7283     0.9917     2.5703 C       4      f4    -0.0495
   1190 C           -1.5833     3.2115     3.2791 C       4      f4     0.1261
   1191 C           -1.2908     0.0675     1.5126 C       4      f4    -0.0068
   1192 C           -1.0871     2.2254     2.4086 C       4      f4     0.2074
   1193 C           -0.9779     4.4919     3.4015 C      15     f15     0.2183
   1194 C           -0.5036     0.8714     0.6909 C       4      f4     0.2151
   1195 O           -0.2519     2.3004     1.1201 O       4      f4    -0.4578
   1196 C            1.5845     1.4258     4.2893 C      36     f36    -0.0006
   1197 C            1.9043     0.1493     3.5675 C      36     f36     0.0030
   1198 C            2.1208     2.6842     3.7769 C      36     f36     0.0199
   1199 C            2.0197     0.0553     2.1700 C      36     f36    -0.0144
   1200 C            2.2906     1.2038     1.5723 C      36     f36    -0.0177
   1201 C            2.3280     0.8890     0.1542 C      36     f36     0.2424
   1202 C            2.4657     2.5321     2.3466 C      36     f36     0.0511
   1203 C            3.2889     3.4453     1.6755 C       0      f0     0.0144
   1204 C            3.9214     2.9808     0.4197 C       0      f0    -0.0077
   1205 H            4.8332     0.2066     2.1556 H       0      f0     0.0208
   1206 C            5.2428     2.4401     0.4096 C       0      f0    -0.0010
   1207 C            5.3681     1.0881     2.4726 C       5      f5    -0.0251
   1208 C            5.8254     2.2183     1.7428 C       5      f5    -0.0003
   1209 C            5.8815     1.3313     3.7392 C       5      f5    -0.0028
   1210 C            6.4367     3.2946     2.5573 C       5      f5    -0.0064
   1211 C            6.6554     2.6327     3.8254 C       5      f5    -0.0065
   1212 H            8.1923     2.1712     2.1663 H       0      f0     0.0329
   1213 C            8.4474     1.7956     0.0217 C       9      f9     0.0148
   1214 C            8.9324     2.0066     1.4375 C       9      f9    -0.1008
   1215 C            9.7934     0.7657     1.8376 C       9      f9     0.0002
   1216 C           10.2483     3.0732     1.4198 C       0      f0     0.3431
   1217 C           11.1012     0.9678     1.2584 C       9      f9    -0.0369
   1218 O           11.2325     3.7705     1.3873 O       0      f0    -0.5132
   1219 C           11.8044     3.7520     4.3969 C      37     f37     0.0156
   1220 C           12.2106     0.8135     2.3502 C       0      f0     0.0446
   1221 C           12.5851     1.7212     3.5050 C      37     f37    -0.0022
   1222 C           13.0212     4.0788     3.6556 C      37     f37     0.0256
   1223 C           13.6086     2.7537     3.2921 C      37     f37     0.0245
   1224 C          -13.7330     6.1982     2.9260 C       1      f1    -0.0046
   1225 C          -13.2613     8.6586     2.2337 C       1      f1     0.2054
   1226 C          -12.8780     8.6728     3.6957 C       1      f1    -0.0472
   1227 C          -12.3376     6.2750     3.4817 C       1      f1    -0.0073
   1228 H          -12.3603     8.4872     1.6047 H       0      f0     0.0052
   1229 C          -12.0889     7.5296     4.2018 C       1      f1     0.0036
   1230 C          -11.4196     5.1101     3.5572 C      16     f16     0.0010
   1231 C          -11.3888     5.2509     0.1078 C      20     f20    -0.0095
   1232 C          -10.3129     7.4617     0.5844 C      20     f20    -0.0041
   1233 C          -10.4796     6.0583     0.8835 C      20     f20     0.0037
   1234 C           -9.9867     5.2623     3.2476 C      16     f16    -0.0040
   1235 C           -9.5219     5.4132     1.8809 C      16     f16     0.0002
   1236 C           -9.2371     8.2227     1.2435 C       0      f0     0.0018
   1237 C           -9.0136     4.9568     4.3089 C      16     f16    -0.0009
   1238 C           -8.2712     4.8558     1.4702 C      16     f16     0.0131
   1239 C           -7.9329     7.5921     1.3623 C       0      f0    -0.0015
   1240 C           -7.5844     6.7342     0.1250 C       0      f0    -0.0063
   1241 C           -7.5933     5.1138     3.8261 C      16     f16     0.0129
   1242 C           -7.6643     5.2762     0.2010 C       0      f0     0.0105
   1243 C           -7.4642     7.5392     2.7046 C       0      f0    -0.0054
   1244 C           -7.1413     7.6182     4.0003 C       0      f0    -0.0033
   1245 C           -6.7618     6.1629     4.3454 C       0      f0    -0.0029
   1246 C           -4.3654     4.8831     0.3579 C      24     f24    -0.0021
   1247 C           -4.2057     5.9712     3.7905 C      15     f15    -0.0043
   1248 C           -3.8018     7.2965     3.3876 C      15     f15     0.0005
   1249 C           -3.1269     5.6833     0.1089 C      24     f24     0.0042
   1250 C           -2.5508     7.3991     2.7163 C      15     f15     0.0110
   1251 C           -1.9685     8.4904     1.9519 C      15     f15    -0.0094
   1252 C           -1.8550     5.3801     3.9852 C      15     f15     0.0272
   1253 C           -1.5787     6.4883     3.1541 C      15     f15    -0.0082
   1254 C           -0.5419     8.6287     1.6550 C      15     f15     0.0019
   1255 C           -0.3459     6.3781     2.4565 C      15     f15     0.2296
   1256 O            0.1889     4.9836     2.6214 O      15     f15    -0.4657
   1257 C            0.3530     7.5065     1.9472 C      15     f15    -0.0360
   1258 C            1.8458     7.6365     1.7107 C      15     f15     0.0241
   1259 C            2.3480     6.7356     0.7975 C       0      f0     0.0163
   1260 C            2.8179     5.8000    -0.1052 C       0      f0     0.0108
   1261 C            3.5312     8.4515     4.3635 C       0      f0    -0.0032
   1262 C            3.9784     4.7023     2.2362 C       0      f0     0.0148
   1263 C            4.3194     5.3457     3.5049 C       0      f0    -0.0017
   1264 C            4.3329     5.6649     0.0672 C       0      f0     0.0003
   1265 C            4.9603     4.9948     1.1848 C       0      f0    -0.0021
   1266 C            5.3826     6.4307     3.5689 C       0      f0    -0.0006
   1267 C            5.6254     8.8065     2.9450 C       0      f0    -0.0019
   1268 C            5.8537     7.7558     0.1451 C      42     f42    -0.0020
   1269 C            5.6745     7.4697     2.5647 C       0      f0     0.0016
   1270 C            6.3150     4.5789     1.7745 C       0      f0    -0.0012
   1271 C            6.6894     7.1457     1.3307 C       0      f0    -0.0017
   1272 C            7.1543     5.6558     1.7539 C       0      f0    -0.0029
   1273 C            7.9234     8.0020     1.0423 C       0      f0    -0.0023
   1274 C            8.4644     5.5749     2.3764 C       0      f0    -0.0017
   1275 C            8.6975     5.8879     3.7963 C       0      f0     0.0002
   1276 C            9.4004     6.3909     0.3232 C       0      f0    -0.0021
   1277 C            9.6855     6.1815     1.7694 C       0      f0     0.0161
   1278 C           10.1167     5.5829     4.0147 C       0      f0    -0.0018
   1279 C           10.7352     6.0356     2.7394 C       0      f0     0.0379
   1280 C           11.8290     8.4318     0.9806 C       0      f0     0.0283
   1281 C           12.1548     6.3175     2.6490 C       1      f1     0.0098
   1282 C           12.6355     7.4791     1.9138 C       1      f1     0.0275
   1283 C           13.2406     5.4143     3.1231 C       1      f1     0.0226
   1284 C           13.9646     7.4148     2.3263 C       1      f1    -0.0170
   1285 C          -12.3324    13.1295     0.6662 C       3      f3     0.0019
   1286 H          -11.7557    11.2186     3.9794 H       0      f0     0.0295
   1287 C          -11.7996    11.7990     0.3303 C       3      f3     0.0091
   1288 C          -10.3547    12.8422     1.8738 C       3      f3    -0.0002
   1289 C          -10.4338    11.8014     0.8777 C       3      f3    -0.0001
   1290 C           -9.4190     9.6852     1.6264 C       0      f0     0.0017
   1291 C           -9.4247    10.7497     0.6213 C       0      f0    -0.0005
   1292 C           -9.1476    13.2576     2.6132 C       3      f3     0.0023
   1293 C           -9.1484    10.2496     2.9100 C       0      f0     0.0001
   1294 C           -8.8497    10.9651     3.9346 C       0      f0     0.0024
   1295 C           -8.4469    12.3748     3.5446 C       0      f0    -0.0032
   1296 C           -7.1513    12.8156     4.0368 C       0      f0    -0.0022
   1297 C           -6.1281    13.2607     3.0906 C       0      f0    -0.0002
   1298 C           -4.8419    12.4489     3.1319 C       3      f3    -0.0006
   1299 C           -4.3653    11.4245     2.1745 C       3      f3    -0.0032
   1300 C           -4.1107    11.8511     0.7718 C       3      f3    -0.0024
   1301 C           -3.6339     9.4747     0.3080 C       3      f3    -0.0144
   1302 C           -3.5561    10.3141     2.6295 C       3      f3    -0.0058
   1303 C           -3.1355    13.0029     0.5822 C      18     f18     0.0292
   1304 C           -3.0932     9.3913     1.6527 C       3      f3    -0.0011
   1305 C           -3.0714    10.3115     3.9592 C       3      f3     0.0023
   1306 C           -2.0824    13.0109     1.5474 C      18     f18     0.0004
   1307 C           -1.2969    11.8647     2.0410 C       0      f0     0.0138
   1308 C           -0.8564    10.9837     0.9418 C       0      f0    -0.0520
   1309 C           -0.4795    11.6542     3.2452 C       0      f0    -0.0034
   1310 C            0.0602     9.8356     1.1956 C      15     f15    -0.0001
   1311 C            0.3469    12.7904     3.5274 C       0      f0    -0.0022
   1312 C            1.5018    10.1110     1.2053 C      15     f15    -0.0017
   1313 C            1.8703    12.8548     3.4378 C       0      f0    -0.0052
   1314 C            2.3480     9.0977     1.8063 C      15     f15    -0.0057
   1315 C            2.5509    11.1471     0.8268 C      15     f15    -0.0014
   1316 C            3.4331     9.8527     2.4683 C      15     f15     0.0033
   1317 C            3.6247    11.1880     1.7994 C      15     f15    -0.0034
   1318 C            4.3191     9.2641     3.5616 C       0      f0     0.0007
   1319 C            4.6066    12.3775     1.9003 C       1      f1    -0.0031
   1320 C            5.1705    12.6719     3.5656 C       1      f1     0.0034
   1321 C            5.9152    11.8906     1.3933 C       1      f1     0.0000
   1322 C            6.3394    11.8909     3.7169 C       1      f1     0.0007
   1323 C            6.5844    11.1419     2.4753 C       1      f1    -0.0016
   1324 C            6.7805     9.6855     2.5238 C       0      f0    -0.0011
   1325 C            7.8844     9.2385     1.7140 C       0      f0    -0.0017
   1326 C            8.6869    10.2628     0.9188 C       0      f0    -0.0011
   1327 C           10.1691    10.5442     1.2085 C       0      f0     0.0027
   1328 C           10.8402    11.8633     0.8905 C       0      f0     0.0039
   1329 C           11.0642     9.4794     1.2237 C       0      f0     0.0147
   1330 C           12.1441    12.3708     1.1992 C       0      f0     0.0313
   1331 C           12.6049    12.6486     3.7124 C       1      f1     0.0057
   1332 C           12.8662    12.0013     2.4582 C       1      f1    -0.0461
   1333 C           13.5809    10.7454     2.7008 C       1      f1     0.2551
   1334 C           13.6194    10.4834     4.0255 C       1      f1    -0.0696
   1335 O           14.0822     9.8233     1.6179 O       1      f1    -0.5165
   1336 C          -13.4366   -10.3943     6.9243 C       0      f0     0.0100
   1337 C          -13.0845   -12.0429     4.1668 C       0      f0     0.0006
   1338 C          -12.9396   -13.0166     5.1511 C       0      f0    -0.0054
   1339 C          -12.3778    -9.7044     6.5293 C       0      f0     0.0183
   1340 C          -11.1931   -13.0691     6.6152 C       0      f0    -0.0044
   1341 C          -11.1151   -11.7924     6.4521 C       0      f0    -0.0008
   1342 C          -11.0235   -10.4512     6.2938 C       0      f0    -0.0055
   1343 C           -9.7230    -9.7360     6.6201 C       0      f0     0.0009
   1344 C           -9.7893   -12.4851     8.4198 C      26     f26    -0.0018
   1345 C           -9.4689    -9.9110     8.0374 C       0      f0     0.0098
   1346 C           -8.7642    -9.2297     5.6844 C       3      f3    -0.0065
   1347 C           -8.4440   -12.9292     8.3053 C      26     f26    -0.0004
   1348 C           -7.4565   -11.8409     8.4770 C      26     f26    -0.0008
   1349 C           -7.3532    -8.8708     6.1715 C       3      f3    -0.0032
   1350 C           -6.9389   -11.2547     7.2101 C       3      f3    -0.0004
   1351 C           -6.9696    -9.8171     7.2808 C       3      f3    -0.0008
   1352 C           -5.6199   -11.8382     6.7580 C       3      f3    -0.0001
   1353 C           -5.8223    -9.1527     7.9363 C       3      f3     0.0006
   1354 C           -5.5224   -12.9145     5.8200 C       3      f3     0.0002
   1355 C           -4.6080    -9.9662     8.1347 C       3      f3     0.0040
   1356 C           -4.4453   -11.1278     7.2635 C       3      f3     0.0016
   1357 C           -4.0389   -10.5353     4.3074 C       0      f0     0.0208
   1358 C           -3.2119   -11.3256     6.5144 C       3      f3     0.0003
   1359 C           -3.1623   -12.7552     6.1582 C       3      f3    -0.0005
   1360 C           -3.2071   -10.3994     5.3687 C       0      f0     0.0071
   1361 C           -3.2501    -8.8510     5.7200 C       0      f0    -0.0049
   1362 C           -0.8586   -13.1537     7.0356 C       0      f0     0.0000
   1363 C           -0.7649   -13.0306     8.4756 C      14     f14    -0.0043
   1364 C           -0.0948    -8.9530     7.6036 C       0      f0    -0.0007
   1365 C            0.1638   -10.2613     6.9569 C       0      f0     0.0003
   1366 C            0.0586   -10.5034     5.5547 C       0      f0     0.0011
   1367 C            0.1656    -9.4281     4.4685 C       0      f0    -0.0045
   1368 C            0.1876   -11.8853     5.1230 C       0      f0    -0.0027
   1369 C            0.2818   -12.9245     6.1665 C       0      f0    -0.0030
   1370 C            0.9433   -11.0445     8.0600 C      14     f14    -0.0045
   1371 C            1.6396   -13.1678     6.6786 C       0      f0    -0.0015
   1372 C            1.9838   -12.0087     7.4847 C       0      f0     0.0321
   1373 C            3.3279   -11.3961     7.2813 C       1      f1    -0.0385
   1374 C            3.5420   -10.2644     6.3714 C       1      f1     0.0033
   1375 C            4.1554   -10.6183     5.1286 C       1      f1    -0.0102
   1376 C            4.5559   -12.0550     7.6840 C       1      f1     0.2452
   1377 C            5.0653   -11.8595     5.2495 C       1      f1     0.0098
   1378 C            5.5402   -12.0783     6.6167 C       1      f1    -0.0552
   1379 C            6.9725   -12.0217     7.0265 C       1      f1     0.0314
   1380 C            7.1877   -12.5876     8.3550 C       1      f1    -0.0531
   1381 C            7.4639    -9.7319     7.4031 C       8      f8     0.0046
   1382 C            7.9427   -10.9446     6.6648 C       1      f1    -0.0078
   1383 C            8.6517   -12.7724     8.5251 C       1      f1     0.0118
   1384 C            9.3385   -11.4367     6.4019 C       1      f1    -0.0042
   1385 C            9.5604   -12.4387     7.4308 C       1      f1    -0.0071
   1386 C           10.0652   -11.5537     5.0822 C       1      f1    -0.0101
   1387 C           11.0505   -12.5932     4.9836 C       1      f1    -0.0020
   1388 H           12.6421    -9.4216     5.2836 H       0      f0     0.0266
   1389 C           13.6507   -11.1856     7.3470 C       1      f1    -0.0026
   1390 C           13.6760   -12.6211     7.1450 C       1      f1    -0.0019
   1391 C          -12.5383    -8.1795     6.3002 C       1      f1    -0.0392
   1392 C          -12.1226    -7.3406     7.3792 C       1      f1     0.2464
   1393 C          -12.3340    -7.7513     4.8526 C       1      f1     0.0309
   1394 C          -11.1349    -6.4180     6.9836 C       1      f1    -0.0367
   1395 C          -11.0258    -7.1429     4.7719 C       1      f1    -0.0077
   1396 C          -10.7641    -5.7714     8.2052 C       1      f1    -0.0333
   1397 C          -10.5143    -6.2804     5.7228 C       1      f1     0.0172
   1398 C           -9.6091    -4.8123     8.0599 C       0      f0     0.0021
   1399 C           -9.5782    -5.2854     5.2956 C       1      f1     0.0051
   1400 C           -8.3400    -5.5088     7.9149 C       3      f3    -0.0040
   1401 C           -8.2872    -6.9818     7.9887 C       3      f3    -0.0016
   1402 C           -7.0814    -5.0401     7.1802 C       3      f3    -0.0027
   1403 C           -7.1648    -7.4123     7.0256 C       3      f3    -0.0052
   1404 C           -6.6852    -6.0936     6.2736 C       3      f3    -0.0044
   1405 C           -6.2277    -8.8097     5.1093 C       3      f3    -0.0010
   1406 C           -5.8206    -7.5259     4.5553 C       3      f3     0.0018
   1407 C           -5.7662    -6.2060     5.2412 C       3      f3    -0.0019
   1408 C           -5.8645    -7.6809     7.8613 C       3      f3    -0.0032
   1409 C           -4.9908    -4.9749     4.8144 C       0      f0     0.0104
   1410 C           -4.5768    -7.1790     7.5793 C       8      f8    -0.0034
   1411 C           -4.3507    -5.8909     8.1090 C       8      f8    -0.0078
   1412 C           -3.2422    -7.9978     7.0167 C       8      f8     0.0012
   1413 C           -3.0825    -5.4993     7.4361 C       8      f8    -0.0047
   1414 C           -2.5066    -6.7100     6.8682 C       8      f8    -0.0043
   1415 C           -2.5765    -8.2835     4.8054 C       0      f0     0.0336
   1416 C           -2.5318    -8.7493     8.1644 C       0      f0    -0.0018
   1417 C           -2.1947    -4.4040     7.1439 C       8      f8    -0.0014
   1418 C           -1.4576    -6.4447     6.0384 C       8      f8    -0.0006
   1419 C           -1.2228    -5.1175     6.3774 C       8      f8    -0.0046
   1420 C           -0.7290    -6.9893     4.7740 C       8      f8    -0.0042
   1421 C           -0.1986    -4.8415     5.4731 C       8      f8    -0.0033
   1422 C            0.3117    -8.0765     5.0078 C       8      f8    -0.0017
   1423 C            1.2008    -8.2284     7.5391 C       0      f0    -0.0038
   1424 C            1.4474    -7.0089     8.2895 C       0      f0    -0.0064
   1425 C            1.7130    -7.8998     5.2259 C       8      f8    -0.0062
   1426 C            1.8254    -5.6352     4.2988 C       8      f8     0.0009
   1427 C            1.9887    -4.7643     7.9745 C       0      f0     0.0037
   1428 C            2.1319    -8.5424     6.4651 C       8      f8    -0.0028
   1429 C            2.5752    -6.7339     4.7325 C       8      f8    -0.0080
   1430 C            2.5001    -6.0326     7.8341 C       0      f0    -0.0047
   1431 C            3.5975    -8.7678     6.6643 C       8      f8    -0.0060
   1432 C            3.8883    -6.4715     7.9590 C       0      f0    -0.0021
   1433 C            3.9942    -6.8737     4.9246 C       8      f8     0.0216
   1434 C            4.0628    -7.9884     8.1915 C       8      f8     0.0104
   1435 C            4.5524    -8.0410     5.6656 C       8      f8     0.0075
   1436 C            5.0423    -5.7482     7.4575 C      33     f33     0.0001
   1437 C            4.8203    -5.7046     4.8699 C       0      f0     0.0236
   1438 C            5.4227    -5.1106     6.1359 C      33     f33     0.0271
   1439 C            5.4994    -8.4325     8.2034 C       8      f8    -0.0397
   1440 C            5.9321    -8.2680     5.7877 C       8      f8    -0.0091
   1441 C            6.1372    -5.4436     8.3948 C      33     f33     0.0008
   1442 C            6.2815    -8.9470     7.0407 C       8      f8    -0.0023
   1443 H            6.6969    -7.8701     5.1108 H       0      f0     0.0558
   1444 C            8.3231    -4.5165     8.3369 C      33     f33    -0.0021
   1445 C            9.4534    -4.4354     7.6837 C       0      f0     0.0185
   1446 C           11.7275    -6.7477     6.1236 C       0      f0     0.0465
   1447 C           11.5476    -5.2826     6.1352 C      29     f29    -0.0056
   1448 C           11.5597    -7.4616     4.9036 C       1      f1    -0.0072
   1449 C           12.0417    -7.5901     7.3002 C       0      f0    -0.0002
   1450 C           12.0669    -8.8354     4.5348 C       1      f1    -0.0221
   1451 C           12.3186    -8.3324     8.1299 C       0      f0     0.0174
   1452 C           12.8578    -4.7762     5.9163 C      29     f29     0.2514
   1453 O           13.9091    -5.2253     4.9024 O       0      f0    -0.4981
   1454 C          -13.6596    -3.5957     7.4265 C      29     f29     0.0234
   1455 C          -12.5016    -3.3857     6.6827 C       0      f0     0.0188
   1456 C          -12.3631    -3.5238     5.2072 C      32     f32    -0.0509
   1457 C          -11.5524    -2.4892     4.4890 C      32     f32    -0.0065
   1458 C          -11.2730    -2.9453     7.4076 C       0      f0    -0.0064
   1459 C          -10.2747    -1.8361     4.6640 C       0      f0     0.0249
   1460 C          -10.0902    -0.2816     4.4586 C       0      f0     0.0125
   1461 C           -9.9223    -3.6713     7.2119 C       0      f0     0.0050
   1462 C           -9.4196    -3.8952     5.8353 C       1      f1    -0.0067
   1463 C           -9.2890    -2.8955     4.8228 C       1      f1    -0.0348
   1464 C           -9.2686    -0.2407     8.3083 C       1      f1    -0.0008
   1465 C           -8.1638    -1.2351     8.4828 C       1      f1    -0.0018
   1466 C           -6.8285    -1.0960     8.2320 C       0      f0     0.0080
   1467 C           -6.3016    -4.0012     7.8132 C       0      f0    -0.0010
   1468 C           -5.4713    -0.9601     7.8708 C       0      f0     0.0215
   1469 C           -5.1277    -3.3541     7.0524 C       0      f0    -0.0061
   1470 C           -4.9707    -4.0050     5.8418 C       0      f0     0.0198
   1471 C           -4.5237    -2.1952     7.7423 C       0      f0     0.0293
   1472 C           -3.1718    -2.1185     8.1183 C       0      f0    -0.0098
   1473 C           -2.6837    -0.0328     7.7826 C       6      f6    -0.0417
   1474 C           -2.1905    -2.9537     7.5041 C       0      f0    -0.0031
   1475 C           -0.7978    -2.5522     7.4112 C       0      f0    -0.0063
   1476 C           -0.1189    -2.4618     6.1407 C       8      f8     0.0010
   1477 C           -0.1246    -0.1068     7.4600 C       6      f6    -0.0086
   1478 C            0.1883    -3.5988     5.3221 C       8      f8    -0.0044
   1479 C            0.0872    -2.9212     8.5325 C       0      f0     0.0037
   1480 C            0.6994    -1.4246     5.5398 C       8      f8    -0.0006
   1481 C            1.1277    -3.8652     8.2648 C       0      f0     0.0203
   1482 C            1.4937    -1.8462     4.5566 C       8      f8    -0.0042
   1483 C            2.4433    -0.1945     6.7694 C       6      f6    -0.0043
   1484 C            2.5108    -0.0169     8.1772 C       6      f6     0.0030
   1485 C            4.3958    -0.3913     4.8972 C       0      f0    -0.0030
   1486 C            6.2426    -4.0015     6.6392 C      33     f33    -0.0371
   1487 C            6.7625    -4.1363     8.0958 C      33     f33     0.0055
   1488 C            6.5702    -0.7224     8.0284 C       5      f5     0.0006
   1489 C            6.7623    -0.8908     6.6223 C       5      f5     0.0085
   1490 C            7.1812    -3.3429     5.7615 C       0      f0     0.2299
   1491 C            7.5177    -2.0098     5.9500 C       0      f0    -0.0445
   1492 O            7.8470    -4.0883     4.6579 O       0      f0    -0.4654
   1493 C            8.6482    -1.6964     5.0826 C       0      f0    -0.0663
   1494 C            8.7609    -2.8637     4.3308 C       0      f0     0.2286
   1495 H            9.1089    -0.6974     4.9984 H       0      f0     0.0278
   1496 C           10.7142    -4.4483     7.0894 C      29     f29     0.0193
   1497 C           11.9564    -3.9833     7.8165 C      29     f29    -0.0038
   1498 C           13.1375    -3.9060     6.9852 C      29     f29    -0.0484
   1499 C          -13.8301     4.3370     6.9580 C       1      f1    -0.0015
   1500 C          -13.2680     1.4020     8.2203 C       1      f1    -0.0005
   1501 C          -12.7630     3.9685     7.9159 C       1      f1    -0.0000
   1502 C          -11.7618     4.0223     4.5280 C      16     f16    -0.0022
   1503 C          -11.7956     1.5993     5.0686 C      16     f16    -0.0037
   1504 C          -11.4932     0.3211     4.4339 C      16     f16    -0.0096
   1505 C          -11.0146     2.3115     6.0654 C      16     f16    -0.0030
   1506 C          -10.8299     3.6801     5.5546 C      16     f16    -0.0027
   1507 C          -10.0157     1.8988     7.0470 C      16     f16     0.0029
   1508 C           -9.5832     0.5039     7.1341 C       0      f0    -0.0031
   1509 C           -9.4556     4.1904     5.4709 C      16     f16     0.0052
   1510 C           -9.6388     3.2270     7.7040 C      16     f16     0.0029
   1511 C           -9.0949     0.0757     5.7600 C       0      f0     0.0090
   1512 C           -9.0178     4.2365     6.8386 C      16     f16     0.0067
   1513 C           -7.8559     0.3120     5.5632 C       0      f0    -0.0008
   1514 C           -6.5973     0.4648     5.2817 C       4      f4     0.1490
   1515 O           -5.6870     1.7011     5.6019 O       4      f4    -0.4585
   1516 C           -5.5000     4.0034     8.0057 C       0      f0     0.0010
   1517 C           -5.0359     0.4075     8.0988 C       6      f6     0.0549
   1518 C           -4.9117     2.6826     7.9183 C       6      f6     0.0445
   1519 C           -4.6601     1.1428     4.6534 C       4      f4     0.1430
   1520 C           -3.8040     0.7615     7.5825 C       6      f6     0.0188
   1521 C           -3.7641     2.1644     7.3139 C       6      f6     0.0322
   1522 O           -2.8775     3.0330     4.1174 O       4      f4    -0.4797
   1523 C           -2.4611     2.6253     6.8981 C       6      f6     0.0238
   1524 C           -1.9928     3.9673     6.9424 C       6      f6     0.0131
   1525 C           -1.4413     0.3768     7.1324 C       6      f6    -0.0009
   1526 C           -1.4079     1.7081     6.5231 C       6      f6     0.0084
   1527 C           -0.7111     4.4012     6.8727 C       6      f6     0.0046
   1528 C           -0.0814     2.1883     6.0411 C       6      f6     0.0012
   1529 C            0.2819     3.5948     6.2065 C       6      f6     0.0013
   1530 C            0.8044     1.1997     5.4559 C       6      f6    -0.0045
   1531 C            0.9513    -0.1344     6.3014 C       6      f6    -0.0039
   1532 C            1.5233     4.2426     5.7045 C      30     f30     0.0079
   1533 C            2.4041     3.8269     4.6582 C      30     f30     0.0139
   1534 C            3.6251     0.2894     6.0098 C       6      f6    -0.0003
   1535 C            4.2286     1.7736     7.8811 C       6      f6    -0.0001
   1536 C            4.3069     1.4723     6.5181 C       6      f6    -0.0215
   1537 H            4.9490     1.9874     5.8237 H       0      f0     0.0222
   1538 C            5.6986     0.2311     4.7216 C       5      f5    -0.0080
   1539 C            6.2597     3.0798     7.9451 C       0      f0    -0.0012
   1540 C            6.7285     0.3167     5.7947 C       5      f5    -0.0024
   1541 C            6.8972     0.6421     8.3025 C       5      f5     0.0032
   1542 C            6.9239     1.8537     7.4043 C       5      f5     0.0004
   1543 C            7.2630     1.6702     6.0042 C       5      f5    -0.0040
   1544 C            7.5276     2.7170     5.0060 C       5      f5    -0.0033
   1545 C            8.2602     3.8871     5.6104 C       0      f0     0.0016
   1546 C            9.7285     3.8328     5.8249 C      37     f37    -0.0047
   1547 C           10.5350     4.4342     4.7568 C      37     f37     0.0072
   1548 C           10.6463     3.1173     6.7900 C      37     f37     0.0014
   1549 C           11.1039     3.6284     8.1043 C       5      f5    -0.0007
   1550 C           11.4794     2.2214     6.0007 C      37     f37    -0.0062
   1551 C           11.6905     2.2887     4.5349 C      37     f37    -0.0022
   1552 C           12.8747     2.1565     6.5676 C       0      f0    -0.0043
   1553 C           13.1213     0.1017     8.4281 C       0      f0    -0.0054
   1554 C           13.5531     3.2654     6.7266 C       0      f0     0.0013
   1555 C           13.5253     1.2483     7.7802 C       0      f0    -0.0025
   1556 C          -13.2468     6.6587     6.8907 C       1      f1    -0.0021
   1557 C          -12.7660     8.1318     6.5633 C       1      f1     0.0012
   1558 C          -12.2835     8.8800     8.0381 C       1      f1     0.0001
   1559 C          -11.9567     6.1767     7.3085 C       1      f1    -0.0001
   1560 C          -11.7803     4.9905     8.1360 C       1      f1     0.0004
   1561 C          -11.6566     7.6891     5.6104 C       1      f1     0.0000
   1562 C          -10.9094     6.6432     6.3106 C       1      f1    -0.0029
   1563 C           -9.6580     8.5148     8.1805 C       0      f0    -0.0003
   1564 C           -9.4460     6.6919     6.5390 C       0      f0    -0.0008
   1565 C           -9.2053     8.1687     6.7787 C       0      f0    -0.0026
   1566 C           -8.5253     5.6260     7.0056 C       0      f0     0.0021
   1567 C           -7.2952     8.6200     5.1560 C       0      f0    -0.0033
   1568 C           -7.0479     5.8036     6.8597 C       0      f0    -0.0046
   1569 C           -6.7823     7.0934     7.5217 C       0      f0     0.0020
   1570 C           -6.0151     4.7971     6.8462 C       0      f0     0.0265
   1571 C           -5.7421     8.0324     7.1553 C       0      f0    -0.0024
   1572 C           -5.4075     5.7182     4.6161 C      15     f15     0.0098
   1573 C           -5.0184     5.2170     5.8526 C      15     f15     0.0079
   1574 C           -4.5287     8.3303     8.0320 C       0      f0     0.0012
   1575 C           -3.9083     8.2101     4.6410 C       0      f0    -0.0074
   1576 H           -3.9105     7.5980     5.6205 H       0      f0     0.0422
   1577 C           -3.6177     5.2360     5.9337 C      15     f15     0.0247
   1578 C           -3.1534     5.3979     4.6241 C      15     f15     0.0919
   1579 C           -2.8854     4.9858     7.0578 C       6      f6     0.0016
   1580 C           -2.0678     5.9733     7.7635 C       6      f6     0.0303
   1581 C           -1.4796     8.2691     8.6284 C       6      f6     0.0064
   1582 C           -1.5207     8.8017     5.0551 C      30     f30     0.2367
   1583 O           -1.2298     7.3519     5.5051 O      30     f30    -0.5188
   1584 C           -0.7324     5.6495     7.5963 C       6      f6     0.0178
   1585 C           -0.2848     8.0478     8.0102 C       6      f6     0.0213
   1586 C            0.2770     7.1628     5.6267 C      30     f30     0.2507
   1587 C            0.2763     6.5188     8.0910 C       6      f6     0.0035
   1588 C            0.9335     6.4457     6.6688 C      30     f30    -0.0469
   1589 C            1.2933     8.1552     5.4653 C      30     f30    -0.0577
   1590 C            1.9907     5.5169     6.2485 C      30     f30     0.0024
   1591 C            2.7241     7.6529     5.1312 C      30     f30     0.0094
   1592 C            3.0011     6.1821     5.4281 C      30     f30    -0.0065
   1593 C            3.2827     5.0631     4.5043 C      30     f30     0.0125
   1594 C            5.0964     8.6866     8.0157 C       1      f1    -0.0064
   1595 C            5.8409     5.6141     8.0055 C       0      f0    -0.0030
   1596 C            6.2384     6.6827     7.1925 C       0      f0    -0.0063
   1597 C            6.2193     8.1364     7.4124 C       1      f1    -0.0034
   1598 C            6.4600     6.5620     4.5608 C       0      f0    -0.0025
   1599 C            6.7679     6.0940     5.9258 C       0      f0    -0.0023
   1600 C            6.5377     4.4459     7.5458 C       0      f0    -0.0007
   1601 C            7.3349     4.8204     6.3063 C       0      f0    -0.0019
   1602 C            7.8481     6.9658     4.2360 C       0      f0    -0.0012
   1603 C            8.3579     8.0232     5.1638 C       0      f0    -0.0041
   1604 H            9.5551     5.8533     6.6544 H       0      f0     0.0237
   1605 C            9.7861     7.8914     5.6228 C       0      f0     0.0015
   1606 C           10.1903     6.7107     6.3392 C       0      f0    -0.0211
   1607 C           10.8124     8.9199     5.6248 C       0      f0    -0.0022
   1608 C           11.5481     6.8145     6.5206 C       0      f0     0.0025
   1609 C           11.9824     8.2404     6.1830 C       0      f0    -0.0005
   1610 C           12.0061     4.7841     8.1675 C       5      f5    -0.0010
   1611 C           12.4189     5.7952     7.1546 C       0      f0    -0.0027
   1612 C           13.8268     5.7437     6.7643 C       1      f1    -0.0006
   1613 C          -13.8770     8.9341     5.9210 C       1      f1    -0.0053
   1614 C          -13.8237     9.3412     4.5307 C       1      f1     0.0360
   1615 C          -11.9826    10.3535     8.1127 C      26     f26     0.0013
   1616 C          -11.6512    12.8180     5.4078 C       0      f0     0.0018
   1617 C          -11.4159    11.4771     4.9872 C       0      f0    -0.0181
   1618 C          -10.8189    12.9823     8.1444 C      26     f26     0.0002
   1619 C          -10.7919    10.7519     7.3324 C      26     f26    -0.0015
   1620 C          -10.5262    10.6958     5.8555 C       0      f0     0.0087
   1621 C          -10.0075    11.7347     8.0876 C      26     f26    -0.0014
   1622 C           -9.0518    10.4841     5.5070 C       0      f0    -0.0170
   1623 C           -8.6173     8.9935     5.7109 C       0      f0    -0.0003
   1624 H           -8.4169    11.1317     6.1742 H       0      f0     0.0238
   1625 C           -6.6275    12.6793     5.4632 C       0      f0    -0.0019
   1626 C           -6.3206    11.4683     6.0229 C       0      f0    -0.0031
   1627 C           -6.2309     8.9312     6.1233 C       0      f0    -0.0056
   1628 C           -5.9870    10.3004     6.6794 C       0      f0    -0.0003
   1629 C           -5.5347    10.3568     8.1473 C       0      f0     0.0009
   1630 H           -4.8374     8.7530     4.5318 H       0      f0     0.0180
   1631 C           -4.2943   -13.2337     5.3533 C       3      f3     0.0012
   1632 C           -4.2201     9.7566     8.3534 C       0      f0     0.0012
   1633 C           -4.1478    12.4069     4.3618 C       3      f3     0.0011
   1634 C           -3.0614    11.5558     4.5765 C       3      f3    -0.0024
   1635 C           -2.7507     9.1362     4.5994 C       0      f0    -0.0457
   1636 C           -2.0007    12.9803     6.2348 C       3      f3     0.0013
   1637 C           -1.9076    11.8135     5.3851 C       3      f3    -0.0034
   1638 C           -1.7767     9.6417     8.7670 C       6      f6    -0.0023
   1639 C           -0.8227    11.1363     4.6430 C       0      f0     0.0047
   1640 C           -0.5282     9.7833     5.1085 C      30     f30    -0.0566
   1641 C           -0.4730    10.2906     8.1774 C       6      f6    -0.0022
   1642 C            0.1854     9.2436     7.4239 C       6      f6    -0.0012
   1643 C            0.7927     9.4862     5.9451 C      30     f30     0.0096
   1644 H            1.4616    10.3606     5.9292 H       0      f0     0.0194
   1645 C            2.4633    12.3788     6.0059 C       1      f1    -0.0033
   1646 C            2.7724    12.4778     4.6103 C       1      f1    -0.0048
   1647 C            3.5316    11.6079     6.6094 C       1      f1     0.0119
   1648 C            3.6758    10.6043     7.5608 C       1      f1     0.0108
   1649 C            4.1665    12.2114     4.5252 C       1      f1    -0.0027
   1650 C            4.6570    11.8777     5.7861 C       1      f1     0.0016
   1651 C            4.9565    10.0336     7.5975 C       1      f1     0.0089
   1652 C            5.8985    11.4483     5.9746 C       1      f1     0.0066
   1653 C            6.0259    10.3803     6.8894 C       1      f1     0.0020
   1654 C            6.8758    11.4715     4.9442 C       1      f1    -0.0010
   1655 C            7.1030     9.3037     6.9216 C       1      f1     0.0000
   1656 C            7.6006     9.1914     5.4618 C       1      f1    -0.0029
   1657 C            8.0026    10.5356     5.0425 C       1      f1    -0.0007
   1658 C            8.2242     9.9086     7.9422 C       1      f1     0.0021
   1659 C            9.0659    10.8458     7.3160 C       1      f1    -0.0003
   1660 C            9.1996    10.9033     5.8193 C       1      f1    -0.0005
   1661 C           10.0026    11.7636     7.9430 C       1      f1     0.0002
   1662 C           10.2960    12.9364     7.1344 C       1      f1    -0.0007
   1663 C           10.5344    10.3807     5.4524 C       0      f0    -0.0006
   1664 C           10.9415    12.7889     5.8241 C       1      f1     0.0014
   1665 C           11.4688    11.4537     5.4569 C       1      f1     0.0029
   1666 C           12.8658    11.5424     4.9196 C       1      f1     0.0068
   1667 C           12.8786    13.0726     7.9525 C       1      f1     0.0008
   1668 C           13.1334     8.9505     6.7679 C       1      f1     0.0018
   1669 C           13.0408    11.7249     7.5208 C       1      f1     0.0024
   1670 C           13.3673     9.2471     8.2180 C       1      f1    -0.0004
   1671 C           13.6144    11.8363     6.2339 C       1      f1     0.0020
   1672 C          -13.9211    13.1392     6.1536 C       1      f1    -0.0022
   1673 C          -13.3568   -11.8796    12.0686 C       0      f0    -0.0015
   1674 C          -13.1864   -13.2026    11.3741 C       0      f0     0.0009
   1675 C          -13.0282   -10.8095    11.1573 C       0      f0     0.0053
   1676 C          -12.8327    -9.3528    11.4694 C       7      f7     0.0105
   1677 C          -12.4876   -12.9766    10.0721 C       0      f0    -0.0007
   1678 C          -12.3290   -11.4580    10.0552 C       0      f0     0.0047
   1679 C          -11.1084   -10.8036     9.6987 C       0      f0     0.0197
   1680 C          -10.2863   -11.0720     8.5093 C       0      f0     0.0012
   1681 C          -10.2833    -9.6222    11.7411 C       7      f7    -0.0003
   1682 C          -10.2035   -10.8075    10.9576 C       0      f0    -0.0013
   1683 C          -10.0721   -12.7391    12.4977 C       0      f0    -0.0017
   1684 C           -9.4230   -11.9597    11.4137 C       0      f0    -0.0005
   1685 C           -9.4582    -9.5784   -12.8407 C       7      f7    -0.0006
   1686 C           -8.6491    -9.1668     9.0534 C       1      f1     0.0050
   1687 C           -8.1293   -12.2982    10.7619 C      26     f26    -0.0004
   1688 C           -7.6760    -9.8575     9.8413 C       1      f1    -0.0005
   1689 C           -7.5309   -11.3196     9.8190 C      26     f26     0.0007
   1690 C           -6.9537    -9.2014    10.9524 C       1      f1    -0.0009
   1691 C           -5.8900    -9.8730    11.6255 C       0      f0    -0.0001
   1692 C           -4.9581   -12.0025   -12.9034 C       0      f0    -0.0004
   1693 C           -4.7201   -10.5635    10.9392 C       0      f0     0.0017
   1694 C           -4.5201   -11.9426    11.5045 C       0      f0     0.0026
   1695 C           -3.7235    -9.6894    10.3929 C       0      f0    -0.0007
   1696 C           -3.4891   -12.9240    11.1113 C       0      f0    -0.0002
   1697 C           -3.4350    -9.6136     8.9430 C       0      f0     0.0001
   1698 C           -2.4129    -8.9340    12.3569 C      17     f17    -0.0009
   1699 C           -2.2227   -11.4200    12.3726 C       0      f0    -0.0003
   1700 C           -2.1209   -12.5048    11.7157 C       0      f0    -0.0038
   1701 C           -0.5504   -12.6812    11.3985 C      14     f14     0.0021
   1702 C           -0.0315   -11.8569     8.9969 C      14     f14     0.0030
   1703 C            0.1291   -12.8100    12.8807 C      14     f14    -0.0183
   1704 C            0.0825   -11.6297    10.3824 C      14     f14     0.0003
   1705 C            0.6778   -10.1011   -12.8885 C       0      f0    -0.0034
   1706 C            1.1791   -10.6972    10.5690 C      14     f14     0.0119
   1707 C            1.6362   -10.1757     9.3089 C      14     f14     0.0126
   1708 C            1.6889   -10.0696    11.8654 C       0      f0    -0.0012
   1709 C            2.5386    -9.2409     9.4650 C       0      f0     0.0016
   1710 C            3.0341   -10.1697    12.4130 C       0      f0     0.0304
   1711 O            4.7212   -12.7959     8.9925 O       1      f1    -0.4849
   1712 O            5.7487    -8.8413    10.7727 O       8      f8    -0.5030
   1713 C            6.2003   -12.9761     9.3261 C       1      f1     0.2485
   1714 C            6.2029    -8.9305     9.2926 C       8      f8     0.2225
   1715 C            6.5039   -10.6196    12.3956 C       8      f8    -0.0327
   1716 C            6.6505    -9.9637    11.1591 C       8      f8     0.2443
   1717 C            7.3449   -11.7711    12.4843 C       8      f8     0.0049
   1718 C            7.3402    -9.6190     8.8460 C       8      f8    -0.0443
   1719 C            7.6559   -10.2900    10.1755 C       8      f8    -0.0399
   1720 C            8.1939   -13.2025    10.7980 C       1      f1     0.0058
   1721 C            8.4315   -11.9236    11.4760 C       8      f8    -0.0074
   1722 C            8.8923   -10.6672    10.8941 C       8      f8     0.0016
   1723 C            9.7568    -9.6717    11.6132 C       0      f0     0.0004
   1724 C           10.5070   -10.2662    12.6629 C       0      f0    -0.0013
   1725 C           11.3434   -11.3565    12.0087 C       0      f0    -0.0036
   1726 C           11.8801   -11.0689    10.5923 C       1      f1    -0.0027
   1727 C           12.3254    -9.7001    10.4362 C       1      f1     0.0022
   1728 C           12.3080   -13.2106     9.2094 C       1      f1     0.0032
   1729 C           12.3836   -11.7781     9.4688 C       1      f1    -0.0009
   1730 C           12.6736    -9.4222     8.9889 C       1      f1     0.0138
   1731 C           12.8594   -10.7813     8.5308 C       1      f1     0.0004
   1732 C           12.9871    -9.0300    11.5749 C       7      f7    -0.0048
   1733 C          -13.8792    -8.3838    11.3528 C       7      f7     0.0389
   1734 C          -13.8156    -6.8885    11.8840 C       7      f7     0.0022
   1735 H          -13.3954    -4.4972    11.3082 H       0      f0     0.0267
   1736 O          -12.3725    -7.4298     8.8628 O       1      f1    -0.4787
   1737 C          -12.2085    -5.0661    12.6490 C       7      f7    -0.0110
   1738 C          -12.1764    -6.2819    11.7552 C       7      f7     0.0286
   1739 C          -11.4557    -6.2086     9.2952 C       1      f1     0.2167
   1740 C          -11.3646    -5.6215    10.5256 C       0      f0    -0.0444
   1741 C          -11.4791    -8.7476    11.6399 C       7      f7     0.0269
   1742 C          -11.3019    -7.4507    12.1782 C       7      f7    -0.0020
   1743 C          -10.3830    -4.4866    10.5855 C       1      f1     0.0008
   1744 C           -8.9323    -4.6466    10.4346 C       1      f1    -0.0046
   1745 C           -8.6804    -7.6967     9.1588 C       1      f1     0.0080
   1746 C           -8.1426    -5.7568    10.9298 C       1      f1     0.0005
   1747 C           -8.2562    -7.1346    10.4841 C       1      f1    -0.0007
   1748 C           -7.1501    -7.7597    11.2398 C       1      f1     0.0014
   1749 C           -6.6486    -5.4321    11.4364 C       1      f1     0.0115
   1750 C           -6.2343    -4.4386    12.6104 C       1      f1    -0.0585
   1751 C           -6.2469    -6.7915    11.8858 C       1      f1    -0.0069
   1752 C           -5.9893    -5.0534     9.9803 C       1      f1    -0.0008
   1753 C           -4.7965    -5.7924     9.5766 C       0      f0    -0.0025
   1754 C           -3.7515    -5.8878    10.6503 C      17     f17    -0.0027
   1755 C           -3.2293    -8.5466    11.2641 C      17     f17    -0.0022
   1756 C           -3.1990    -7.1004    11.3221 C      17     f17    -0.0025
   1757 C           -2.7963    -4.7261    10.8527 C      17     f17     0.0043
   1758 H           -2.7056    -6.7252     9.3943 H       0      f0     0.0249
   1759 C           -2.2263    -6.7217    12.3537 C      17     f17    -0.0012
   1760 C           -1.7153    -6.2993     9.6583 C       0      f0    -0.0231
   1761 C           -1.5491    -5.0102    10.1629 C       0      f0     0.0124
   1762 C           -1.1611    -8.4780     8.5124 C       0      f0    -0.0051
   1763 C           -0.7492    -7.2393     9.3247 C       0      f0    -0.0028
   1764 C           -0.2948    -4.2747    10.5680 C       0      f0    -0.0520
   1765 C            0.6724    -6.8191     9.4841 C       0      f0     0.0037
   1766 C            1.0448    -4.6334    10.7647 C       0      f0     0.2311
   1767 C            1.3094    -6.0232    10.5764 C       0      f0    -0.0390
   1768 C            2.6659    -6.1110    10.8674 C       0      f0    -0.0584
   1769 C            3.2118    -4.8497    10.9365 C       0      f0     0.2443
   1770 C            3.4464    -8.3200     9.6261 C       0      f0     0.0476
   1771 C            3.3168    -7.4622    10.9013 C       0      f0     0.0312
   1772 C            3.6522    -7.5779    12.2234 C       0      f0     0.0377
   1773 C            4.5881    -4.6866    10.6140 C       0      f0    -0.0501
   1774 C            5.5093    -5.8773    10.7682 C      33     f33     0.0216
   1775 C            6.3573    -6.1904     9.6281 C      33     f33     0.0166
   1776 C            6.3301    -6.1358    11.9437 C      33     f33     0.0224
   1777 C            7.7045    -6.5355    11.5800 C      33     f33     0.0105
   1778 C            7.7453    -6.1789    10.1692 C      33     f33    -0.0027
   1779 C            8.6441    -5.1378     9.6237 C      33     f33    -0.0081
   1780 C            8.6049    -7.4971    12.2656 C       0      f0     0.0040
   1781 C            9.8498    -8.1728    11.4989 C       0      f0    -0.0007
   1782 C            9.9323    -4.6203    10.2652 C       0      f0    -0.0073
   1783 C           10.8969    -7.3327    11.1716 C       0      f0    -0.0032
   1784 C           11.2355    -5.3071     9.9219 C      29     f29    -0.0012
   1785 C           11.8011    -6.3291    10.8147 C      29     f29    -0.0024
   1786 C           12.1334    -4.3538     9.1808 C      29     f29     0.0015
   1787 C           13.3170    -6.0706    11.1500 C      29     f29     0.0158
   1788 C           13.8758    -4.8263    10.8723 C      29     f29    -0.0172
   1789 C          -13.7744    -3.2844     8.8569 C      29     f29    -0.0037
   1790 C          -13.8458    -2.2326    12.2818 C       5      f5     0.0076
   1791 C          -13.7552    -1.8208     8.9523 C       0      f0    -0.0027
   1792 C          -13.2816     0.2045    12.0083 C       5      f5     0.0146
   1793 C          -12.8328    -1.1452    12.1900 C       5      f5     0.0126
   1794 C          -12.5539    -1.1970     8.5904 C       1      f1    -0.0050
   1795 C          -11.4152    -1.2423    12.6776 C       0      f0    -0.0012
   1796 C          -11.3820    -2.1170     8.5325 C       1      f1    -0.0031
   1797 C          -10.7198    -3.0549    10.8658 C       1      f1    -0.0037
   1798 C          -10.7897    -2.5667    12.1904 C       0      f0    -0.0027
   1799 C          -10.3417    -2.0942     9.7027 C       1      f1    -0.0048
   1800 C          -10.1466    -0.3474     9.6311 C       1      f1    -0.0024
   1801 C           -8.7871    -2.2122     9.5411 C       1      f1    -0.0051
   1802 C           -8.6342    -0.4893    11.5917 C       1      f1     0.0017
   1803 C           -8.3512    -1.7178    10.9284 C       1      f1     0.0038
   1804 C           -7.9509    -3.5525     9.9815 C       1      f1    -0.0011
   1805 C           -7.5631    -2.8080    11.2455 C       0      f0    -0.0014
   1806 C           -6.7993    -3.0987    12.4145 C       1      f1     0.0372
   1807 C           -6.6900    -4.1670     9.2142 C       1      f1    -0.0007
   1808 H           -4.8182    -2.5127    11.6551 H       0      f0     0.0485
   1809 C           -4.0227    -2.1955    12.3294 C      12     f12     0.0250
   1810 O           -3.6746    -0.6108    10.0215 O       6      f6    -0.5198
   1811 C           -2.8383    -2.9244    12.6391 C      12     f12     0.0203
   1812 C           -2.5969    -0.9450     8.9539 C       6      f6     0.2044
   1813 C           -2.5934    -4.3474    12.2409 C      17     f17     0.0065
   1814 C           -1.0634    -0.6814     9.7860 C       6      f6    -0.0182
   1815 C           -0.6574    -1.7867    10.7633 C       0      f0     0.0152
   1816 C           -0.4029    -2.9149     9.9741 C       0      f0     0.0322
   1817 C            0.0740    -0.5088     8.7867 C       6      f6    -0.0028
   1818 C            0.1630    -1.6751    12.0167 C       0      f0     0.0313
   1819 C            1.1809    -0.6895    12.2683 C       0      f0     0.0113
   1820 C            1.4741    -0.2660     9.1627 C       6      f6     0.0149
   1821 O            2.2273    -3.7278    11.0482 O       0      f0    -0.4990
   1822 C            5.3562    -3.4101    10.4411 C       5      f5     0.0292
   1823 C            5.2223    -2.7014    11.7735 C       5      f5     0.0169
   1824 C            6.1106    -3.0865     9.2736 C       5      f5    -0.0059
   1825 C            6.0787    -0.4413   -12.8567 C       0      f0     0.0003
   1826 C            5.8895    -1.4389    11.8093 C       5      f5    -0.0013
   1827 C            6.4465    -1.6936     9.2119 C       5      f5     0.0027
   1828 C            6.6288    -1.1855    10.5909 C       5      f5    -0.0011
   1829 C            7.7015    -0.1843    10.5956 C       5      f5    -0.0037
   1830 C            8.9739    -0.1490    11.3103 C       5      f5    -0.0004
   1831 C            9.4591    -1.2829    12.1215 C       5      f5     0.0012
   1832 C           10.0897    -3.3924    10.8015 C       0      f0    -0.0115
   1833 C           10.4573    -2.2335    11.3686 C       5      f5    -0.0029
   1834 C           11.7665    -2.4716    12.0842 C       5      f5    -0.0003
   1835 C           12.9710    -0.8353    10.6969 C       5      f5     0.0014
   1836 C           13.0689    -1.9747    11.5958 C       5      f5     0.0045
   1837 C           13.1426    -1.0592     9.2439 C       0      f0    -0.0037
   1838 C           13.4760    -4.0321     9.6919 C      29     f29     0.0090
   1839 C          -13.9731     2.3730    12.2567 C       5      f5     0.0014
   1840 C          -12.8426     1.5504    12.5461 C       5      f5     0.0095
   1841 C          -12.6185     2.7168     8.5161 C       1      f1     0.0010
   1842 C          -12.4268     0.2767     8.6673 C       1      f1    -0.0028
   1843 C          -11.4654     2.8154     9.3300 C       1      f1     0.0002
   1844 C          -11.2944     0.4693     9.3729 C       1      f1    -0.0002
   1845 C          -11.0929     1.6611    10.0392 C       1      f1     0.0012
   1846 C          -10.2702     2.4223    12.3250 C      12     f12    -0.0023
   1847 C          -10.1854     4.0048    11.9989 C      12     f12    -0.0011
   1848 C          -10.3106     3.6534     8.9397 C       1      f1     0.0001
   1849 C          -10.1253     1.5581    10.9816 C       1      f1    -0.0004
   1850 C           -9.6033     0.2860    10.8700 C       1      f1    -0.0023
   1851 C           -7.7598     3.5766    12.1674 C      12     f12     0.0006
   1852 H           -6.4798     1.6963     9.2271 H       0      f0     0.0312
   1853 C           -6.3796     3.9396    11.8187 C      12     f12    -0.0003
   1854 C           -5.7292     3.8216    10.5042 C      12     f12     0.0018
   1855 C           -5.4499     1.5778     8.8747 C       6      f6    -0.0027
   1856 C           -4.3096     3.9025    10.8875 C      12     f12     0.0034
   1857 C           -4.3178     1.8382     9.8896 C       6      f6    -0.0623
   1858 C           -4.2059     4.4094    12.2583 C      12     f12    -0.0034
   1859 C           -3.5892     3.0217    10.1643 C       6      f6    -0.0044
   1860 C           -3.4943     0.8334    10.2546 C       6      f6     0.2599
   1861 C           -2.2459     2.7558    10.3913 C       6      f6     0.0012
   1862 C           -2.1637     1.3751    10.3904 C       6      f6    -0.0639
   1863 C           -1.2073     3.6232    10.8633 C       6      f6    -0.0060
   1864 C           -1.0451     0.6119    10.4819 C       6      f6     0.0310
   1865 C           -0.2024     2.7175    11.4487 C       6      f6    -0.0016
   1866 C           -0.1011     1.3171    11.0904 C       6      f6    -0.0125
   1867 C            0.9782     2.9320    12.2837 C       6      f6    -0.0038
   1868 C            1.2405     0.6780    11.4420 C       6      f6    -0.0013
   1869 C            1.8914     1.8904    12.0393 C       6      f6    -0.0027
   1870 C            1.9884     0.3562    10.2820 C       6      f6     0.0120
   1871 C            3.1030     1.1214     9.9505 C       6      f6    -0.0011
   1872 C            3.3841     2.1594    12.1671 C       6      f6    -0.0015
   1873 C            3.4998     0.8268     8.6731 C       6      f6     0.0044
   1874 C            3.7650     2.1250    10.6652 C       6      f6     0.0008
   1875 C            4.0527     0.9173    12.8074 C       0      f0     0.0047
   1876 C            4.7135     2.9143    10.0289 C       6      f6    -0.0017
   1877 C            5.0203     2.7349     8.6425 C       6      f6    -0.0031
   1878 C            5.3995     3.8549    10.8959 C       0      f0     0.0010
   1879 C            5.4931     0.9101    12.6622 C       0      f0     0.0002
   1880 C            5.6235     3.4028    12.2919 C       0      f0    -0.0010
   1881 C            6.2099     2.0882    12.1570 C       0      f0    -0.0032
   1882 C            7.3975     0.9004     9.6661 C       5      f5     0.0003
   1883 C            7.5784     2.2797    11.5290 C       0      f0    -0.0012
   1884 C            7.9166     3.4876    11.9227 C       0      f0    -0.0031
   1885 C            8.1482     2.0587    10.1026 C       5      f5    -0.0015
   1886 C            9.6113     2.0190     9.9870 C       5      f5    -0.0017
   1887 C            9.8842     1.0010    11.0368 C       5      f5     0.0036
   1888 C           10.4380     1.6603    12.2283 C       5      f5     0.0082
   1889 C           10.7140     2.9953     9.4860 C       5      f5    -0.0004
   1890 C           11.5236     3.3585    10.5469 C       5      f5    -0.0013
   1891 C           11.7096     2.3894    11.8097 C       5      f5     0.0040
   1892 C           12.5737     4.4203    10.4983 C       5      f5    -0.0015
   1893 C           13.1658     1.6820    11.6847 C       5      f5     0.0106
   1894 C           13.6036     0.3205    11.3837 C       5      f5     0.0105
   1895 C           13.6712     3.7998    12.8417 C       5      f5     0.0002
   1896 C          -13.8590     7.2891     9.3478 C       0      f0     0.0016
   1897 C          -13.6529     8.4941     8.7605 C       1      f1     0.0006
   1898 C          -13.6802     5.6553    11.2176 C       5      f5    -0.0010
   1899 C          -12.4832     5.5012    12.0570 C       5      f5    -0.0005
   1900 C          -11.2334     4.9053    11.5489 C       0      f0    -0.0013
   1901 C          -11.1214     8.3819    10.2683 C       0      f0     0.0021
   1902 C          -10.9798     8.4417     8.8100 C       0      f0     0.0010
   1903 C          -10.8115     5.7845    10.3502 C       0      f0    -0.0006
   1904 C          -10.6690     5.0521     9.0827 C       1      f1     0.0025
   1905 C          -10.5379     7.1558    10.8601 C       0      f0     0.0008
   1906 C           -9.5277     7.0881    11.9777 C       0      f0     0.0018
   1907 C           -8.9012     4.5606    11.9938 C      12     f12    -0.0006
   1908 C           -8.5053     8.8815     9.0733 C       0      f0     0.0001
   1909 C           -8.5971     5.9912    11.7095 C       0      f0     0.0001
   1910 C           -7.6122     7.9026     9.7378 C       0      f0    -0.0018
   1911 C           -7.2752     6.6441    11.9306 C       0      f0    -0.0010
   1912 C           -7.0247     7.8724    11.1041 C       0      f0    -0.0009
   1913 C           -6.8560     6.9076     8.9855 C       0      f0    -0.0021
   1914 C           -5.9921     4.5440     9.2741 C       0      f0    -0.0016
   1915 C           -5.8947     5.9953     9.5745 C       0      f0    -0.0017
   1916 C           -4.5850     6.5766     9.8407 C       0      f0    -0.0042
   1917 C           -4.1030     5.8526    12.2081 C       0      f0    -0.0053
   1918 C           -3.8972     7.2748     8.7727 C       0      f0     0.0023
   1919 C           -3.5783     6.0809    10.8298 C       0      f0    -0.0011
   1920 C           -2.4064     6.9186     8.9094 C       6      f6    -0.0052
   1921 C           -2.2660     6.0248    10.2265 C       0      f0    -0.0057
   1922 C           -1.2022     5.1046    10.6616 C       0      f0    -0.0008
   1923 C            0.2148     5.5542    10.6159 C      43     f43    -0.0040
   1924 C            0.5654     6.1692    11.9658 C      43     f43    -0.0576
   1925 C            0.8322     6.2324     9.5301 C      43     f43    -0.0039
   1926 C            1.2841     7.1933    11.6170 C      43     f43     0.2590
   1927 C            1.5282     7.2679    10.2270 C      43     f43    -0.0432
   1928 O            1.6255     8.3791    12.4748 O      43     f43    -0.5387
   1929 C            2.2007     8.5226    10.1695 C      43     f43    -0.0370
   1930 H            3.8773     5.2569     9.0845 H       0      f0     0.0238
   1931 C            4.2460     8.1095     8.9311 C       1      f1     0.0129
   1932 O            4.6167     8.7317    11.9807 O       0      f0    -0.5267
   1933 C            4.9072     7.0858     9.6747 C       1      f1     0.0332
   1934 C            4.8933     5.6419     9.2898 C       1      f1    -0.0287
   1935 C            5.5472     5.1498    10.5167 C       1      f1     0.0091
   1936 C            6.0617     7.3016    10.4729 C       1      f1     0.0383
   1937 C            6.3574     6.0901    11.1376 C       1      f1     0.0054
   1938 C            6.8090     8.4040    10.7897 C       1      f1     0.0529
   1939 C            7.5754     5.9714    11.9255 C       1      f1     0.0018
   1940 C            7.7342     8.4174    11.9007 C       1      f1     0.0071
   1941 C            8.3000     7.0966    12.2926 C       1      f1    -0.0019
   1942 C            8.2254     4.6979    12.4317 C       1      f1    -0.0013
   1943 C            9.7425     6.9148    12.7321 C       1      f1    -0.0030
   1944 C           10.5658     8.0083    12.3806 C       1      f1     0.0013
   1945 C           11.9978     8.2607    12.7628 C       1      f1    -0.0170
   1946 C           12.8821     5.0864     9.3124 C       5      f5    -0.0005
   1947 C           13.6015     4.6281    11.5142 C       5      f5    -0.0012
   1948 C           13.9422     6.1275     9.9018 C       5      f5     0.0004
   1949 C          -13.4935    10.9144    11.5362 C       0      f0     0.0012
   1950 C          -13.4085    12.2322    12.1994 C       0      f0    -0.0006
   1951 C          -12.4651    10.5432    10.5465 C       0      f0     0.0000
   1952 C          -12.3655    11.2154     9.2149 C      26     f26    -0.0012
   1953 C          -12.0322    12.6790     9.1363 C      26     f26    -0.0001
   1954 C          -11.4264     9.6201    11.0142 C       0      f0     0.0011
   1955 C          -10.6626    10.1904    12.1380 C       0      f0     0.0002
   1956 C          -10.5070    12.4514    12.5519 C       0      f0    -0.0017
   1957 C           -9.7480    11.3185    11.9388 C       0      f0    -0.0004
   1958 C           -8.7419    11.4090     8.7802 C      26     f26    -0.0000
   1959 C           -8.3681    11.0276    12.2208 C       0      f0     0.0007
   1960 C           -7.9524    12.5896     9.2171 C      26     f26     0.0003
   1961 C           -7.9211    10.2242     9.0233 C       0      f0     0.0005
   1962 C           -7.7337    12.9147    10.6061 C      26     f26     0.0001
   1963 C           -7.3167    12.0281    11.8351 C       0      f0     0.0006
   1964 C           -6.4470    10.3808     9.2353 C       0      f0     0.0000
   1965 C           -6.3499     9.0025    11.6406 C       0      f0     0.0009
   1966 C           -6.0906    10.1625    10.7556 C       0      f0     0.0007
   1967 C           -5.8503    11.3112    11.6047 C       0      f0     0.0005
   1968 C           -4.4887    11.5601    12.1165 C       0      f0     0.0010
   1969 C           -3.7503    12.2471    11.0287 C       0      f0    -0.0011
   1970 C           -3.0448    10.2523     9.0838 C       0      f0     0.0008
   1971 C           -2.9329    11.1845    10.2798 C       0      f0    -0.0036
   1972 C           -2.2324    10.5782    11.3195 C       0      f0     0.0024
   1973 C           -1.7385    10.1096    12.3657 C       0      f0    -0.0248
   1974 H           -0.9527     9.3560    12.3466 H       0      f0     0.0493
   1975 C           -0.2944    12.4607     9.3191 C      14     f14     0.0015
   1976 C           -0.0600    12.6849    10.6994 C      14     f14    -0.0043
   1977 C            0.4343    11.2894     8.7033 C      14     f14    -0.0010
   1978 C            1.2524    12.3850    11.2929 C      14     f14     0.0094
   1979 C            1.2458    12.7377    12.6545 C      14     f14     0.0079
   1980 C            1.7736    10.9999     9.2541 C      14     f14     0.0048
   1981 C            2.1017    11.3777    10.6298 C      14     f14     0.0192
   1982 C            2.0837     9.2079    11.3623 C      43     f43     0.2729
   1983 C            2.6059    10.4763    11.5464 C      14     f14    -0.0251
   1984 C            2.7954    10.1399     8.5988 C       1      f1    -0.0012
   1985 C            3.1067     8.9297     9.2143 C       1      f1     0.0292
   1986 C            6.1992    11.8469    11.2722 C       0      f0     0.0411
   1987 C            6.5700    11.5512    12.7712 C       0      f0     0.0047
   1988 C            6.5312    10.7473    10.6126 C       0      f0     0.0333
   1989 C            6.7726    12.9961    10.4517 C       1      f1    -0.0486
   1990 C            6.9890     9.6656    10.0155 C       0      f0    -0.0008
   1991 C            8.3641     9.9320     9.3267 C       1      f1    -0.0056
   1992 C            8.3841     9.6304    12.3200 C       1      f1    -0.0000
   1993 C            9.0448    13.0713     9.6863 C       1      f1    -0.0080
   1994 C            9.5651    10.5942    10.0206 C       1      f1    -0.0021
   1995 C            9.9148     9.4046    12.3086 C       1      f1    -0.0025
   1996 C           10.0756    11.9311     9.4306 C       1      f1     0.0004
   1997 C           10.4499     9.9080    10.9115 C       1      f1    -0.0012
   1998 H           11.4410    12.6630    11.1136 H       0      f0     0.0211
   1999 C           11.6513    12.3398    10.0512 C       1      f1    -0.0195
   2000 C           11.9354     9.9535    10.7429 C       1      f1    -0.0012
   2001 C           12.3796    11.0157     9.8137 C       1      f1     0.0035
   2002 C           12.7578     9.2875    11.7695 C       1      f1     0.0044
   2003 C           12.9804    10.6252     8.5592 C       1      f1     0.0002
   2004 C           13.9230     9.9050    12.3454 C       1      f1     0.0010
   2005 B           14.0942   -13.3011    12.9048 B      44     BOX     0.0000
   2006 B          -14.0942   -13.3011    12.9048 B      44     BOX     0.0000
   2007 B          -14.0942    13.3011    12.9048 B      44     BOX     0.0000
   2008 B           14.0942    13.3011    12.9048 B      44     BOX     0.0000
   2009 B           14.0942   -13.3011   -12.9048 B      44     BOX     0.0000
   2010 B          -14.0942   -13.3011   -12.9048 B      44     BOX     0.0000
   2011 B          -14.0942    13.3011   -12.9048 B      44     BOX     0.0000
   2012 B           14.0942    13.3011   -12.9048 B      44     BOX     0.0000
@<TRIPOS>BOND
     1      5      7      1
     2      5      8      1
     3      7      9      1
     4      8     10      1
     5      9     10      1
     6      9     11      1
     7     10   1685      1
     8     11     12      1
     9     11     69      1
    10     12    348      1
    11     12    352      1
    12     20     21      1
    13     21     22      1
    14     22     25      1
    15     22     86      1
    16     23     24      1
    17     23     27      1
    18     25     89      1
    19     27     30      1
    20     30     31      1
    21     30     33      1
    22     31     32      1
    23     31     34      1
    24     32     35      1
    25     33    374      1
    26     33    430      1
    27     34     36      1
    28     34    372      1
    29     35     36      1
    30     40     42      1
    31     40     44      1
    32     42     45      1
    33     45     47      1
    34     47     49      1
    35     52     54      1
    36     52    108      1
    37     54    112      1
    38     57     59      1
    39     62     65      1
    40     64     65      1
    41     64     67      1
    42     65     66      1
    43     66     68      1
    44     67     69      1
    45     67   1685      1
    46     68     69      1
    47     69     71      1
    48     71     73      1
    49     73    352      1
    50     75     78      1
    51     75    132      1
    52     77     78      1
    53     81    137      1
    54     81    480      1
    55     82   1759      1
    56     82   1813      1
    57     83   1698      1
    58     83   1759      1
    59     85     88      1
    60     86     88      1
    61     87     88      1
    62     87     89      1
    63     95     97      1
    64     95    149      1
    65     97    152      1
    66     98    101      1
    67     98    440      1
    68    101    102      1
    69    102    443      1
    70    102    444      1
    71    108    110      1
    72    110    111      1
    73    110    112      1
    74    111    113      1
    75    112    114      1
    76    116    458      1
    77    125    182      1
    78    125    526      1
    79    128    130      1
    80    130    132      1
    81    133    134      1
    82    133    189      1
    83    134    136      1
    84    134    193      1
    85    135    137      1
    86    135    482      1
    87    142    145      1
    88    142    146      1
    89    145    149      1
    90    146    150      1
    91    149    150      1
    92    150    152      1
    93    151    153      1
    94    151    154      1
    95    153    155      1
    96    153    497      1
    97    154    156      1
    98    155    156      1
    99    155    502      1
   100    159    161      1
   101    160    161      1
   102    160    162      1
   103    161    163      1
   104    162    164      1
   105    163    165      1
   106    164    165      1
   107    166    224      1
   108    167    457      1
   109    169    228      1
   110    170    171      1
   111    170    519      1
   112    171    522      1
   113    174    176      1
   114    175    177      1
   115    175    230      1
   116    176    178      1
   117    177    233      1
   118    178    180      1
   119    179    181      1
   120    179    525      1
   121    180    183      1
   122    181    182      1
   123    183    185      1
   124    185    186      1
   125    185    187      1
   126    186    189      1
   127    187    188      1
   128    187    190      1
   129    189    191      1
   130    190    191      1
   131    191    193      1
   132    192    194      1
   133    192    247      1
   134    194    196      1
   135    194    199      1
   136    194    542      1
   137    195    196      1
   138    195    540      1
   139    198    199      1
   140    198    250      1
   141    198    255      1
   142    203    206      1
   143    206    208      1
   144    212    263      1
   145    212    266      1
   146    213    214      1
   147    213    216      1
   148    214    215      1
   149    215    218      1
   150    216    218      1
   151    217    272      1
   152    217    605      1
   153    218    219      1
   154    219    220      1
   155    230    231      1
   156    231    233      1
   157    231    234      1
   158    233    235      1
   159    234    236      1
   160    235    237      1
   161    236    237      1
   162    239    243      1
   163    239    296      1
   164    239    582      1
   165    242    243      1
   166    242    298      1
   167    243    246      1
   168    244    246      1
   169    244    247      1
   170    246    249      1
   171    246    586      1
   172    247    250      1
   173    249    251      1
   174    250    251      1
   175    251    253      1
   176    252    308      1
   177    252    635      1
   178    253    254      1
   179    254    255      1
   180    259    262      1
   181    259    316      1
   182    261    262      1
   183    261    317      1
   184    263    265      1
   185    264    265      1
   186    264    268      1
   187    265    267      1
   188    266    267      1
   189    266    556      1
   190    266    599      1
   191    267    269      1
   192    268    269      1
   193    270    271      1
   194    272    609      1
   195    285    286      1
   196    285    619      1
   197    286    287      1
   198    287    290      1
   199    290    296      1
   200    290    624      1
   201    292    293      1
   202    292    294      1
   203    293    297      1
   204    296    298      1
   205    297    299      1
   206    297    628      1
   207    299    300      1
   208    300    301      1
   209    301    303      1
   210    301    629      1
   211    303    632      1
   212    308    641      1
   213    311    313      1
   214    311    314      1
   215    312    641      1
   216    312    646      1
   217    313    315      1
   218    314    316      1
   219    315    317      1
   220    316    317      1
   221    323   1992      1
   222    324    325      1
   223    325    326      1
   224    326    327      1
   225    326    328      1
   226    327    330      1
   227    330    333      1
   228    333    336      1
   229    346    347      1
   230    346    348      1
   231    347    349      1
   232    348    350      1
   233    349    351      1
   234    350    351      1
   235    350    353      1
   236    351    354      1
   237    352    353      1
   238    353    358      1
   239    353    417      1
   240    354    357      1
   241    355    356      1
   242    355    360      1
   243    356    359      1
   244    357    358      1
   245    357    359      1
   246    358    360      1
   247    358    361      1
   248    361    363      1
   249    361    418      1
   250    363    746      1
   251    364    365      1
   252    365    366      1
   253    366    367      1
   254    366    368      1
   255    367    369      1
   256    368    370      1
   257    369    370      1
   258    369    371      1
   259    370    373      1
   260    371    372      1
   261    372    374      1
   262    373    374      1
   263    373    434      1
   264    385    386      1
   265    385    388      1
   266    386    450      1
   267    388    389      1
   268    388    715      1
   269    389    390      1
   270    389    391      1
   271    390    394      1
   272    390    450      1
   273    391    396      1
   274    391    720      1
   275    394    395      1
   276    394    399      1
   277    395    453      1
   278    396    399      1
   279    417    418      1
   280    418    419      1
   281    419    745      1
   282    420    475      1
   283    420    480      1
   284    420    484      1
   285    422    425      1
   286    422    428      1
   287    424    425      1
   288    424    489      1
   289    428    492      1
   290    428    808      1
   291    430    432      1
   292    432    433      1
   293    432    434      1
   294    433    435      1
   295    434    436      1
   296    435    436      1
   297    439    440      1
   298    439    442      1
   299    440    444      1
   300    442    443      1
   301    450    452      1
   302    452    453      1
   303    454    455      1
   304    454    776      1
   305    455    456      1
   306    456    778      1
   307    458    459      1
   308    458    519      1
   309    460    516      1
   310    460    523      1
   311    460    783      1
   312    463    523      1
   313    463    526      1
   314    470    471      1
   315    470    472      1
   316    471    473      1
   317    472    475      1
   318    473    476      1
   319    473    797      1
   320    475    476      1
   321    476    478      1
   322    476    481      1
   323    478    482      1
   324    480    482      1
   325    481    484      1
   326    481    799      1
   327    488    544      1
   328    488    810      1
   329    489    492      1
   330    492    494      1
   331    494    814      1
   332    495    496      1
   333    495    498      1
   334    496    497      1
   335    497    499      1
   336    498    499      1
   337    499    500      1
   338    500    502      1
   339    500    503      1
   340    502    505      1
   341    503    504      1
   342    504    505      1
   343    516    518      1
   344    517    521      1
   345    517    565      1
   346    517    567      1
   347    518    520      1
   348    518    565      1
   349    519    520      1
   350    520    522      1
   351    520    523      1
   352    521    524      1
   353    521    573      1
   354    522    524      1
   355    522    525      1
   356    524    527      1
   357    525    526      1
   358    527    528      1
   359    527    577      1
   360    528    530      1
   361    529    532      1
   362    529    843      1
   363    530    581      1
   364    532    850      1
   365    534    536      1
   366    534    583      1
   367    535    536      1
   368    535    537      1
   369    536    539      1
   370    537    540      1
   371    537    542      1
   372    538    539      1
   373    538    907      1
   374    539    541      1
   375    541    542      1
   376    544    545      1
   377    545    546      1
   378    545    547      1
   379    546    550      1
   380    546    813      1
   381    547    549      1
   382    549    551      1
   383    549    596      1
   384    550    551      1
   385    550    868      1
   386    551    552      1
   387    552    600      1
   388    552    872      1
   389    554    556      1
   390    554    558      1
   391    555    556      1
   392    555    557      1
   393    555    600      1
   394    557    559      1
   395    557    874      1
   396    558    559      1
   397    559    561      1
   398    561    879      1
   399    563    564      1
   400    563    613      1
   401    564    884      1
   402    566    567      1
   403    566    569      1
   404    567    570      1
   405    569    572      1
   406    570    571      1
   407    570    573      1
   408    570    891      1
   409    571    572      1
   410    571    894      1
   411    573    575      1
   412    575    576      1
   413    575    577      1
   414    576    578      1
   415    577    579      1
   416    578    579      1
   417    579    581      1
   418    580    582      1
   419    580    624      1
   420    582    585      1
   421    583    907      1
   422    585    586      1
   423    596    599      1
   424    599    600      1
   425    601    602      1
   426    601    603      1
   427    602    604      1
   428    603    607      1
   429    604    606      1
   430    604    608      1
   431    605    606      1
   432    606    609      1
   433    607    608      1
   434    607    661      1
   435    608    610      1
   436    609    611      1
   437    610    611      1
   438    610    666      1
   439    612    613      1
   440    612    614      1
   441    612    943      1
   442    614    666      1
   443    619    624      1
   444    621    622      1
   445    621    625      1
   446    622    957      1
   447    622    961      1
   448    625    626      1
   449    626    961      1
   450    628    629      1
   451    629    631      1
   452    631    632      1
   453    634    637      1
   454    635    636      1
   455    636    639      1
   456    638    640      1
   457    638    975      1
   458    639    641      1
   459    639    642      1
   460    640    976      1
   461    642    644      1
   462    644    646      1
   463    661    663      1
   464    661    943      1
   465    662    663      1
   466    662    665      1
   467    663    666      1
   468    665    667      1
   469    666    667      1
   470    669    670      1
   471    670    671      1
   472    673    674      1
   473    673    675      1
   474    674    676      1
   475    675    677      1
   476    675   1015      1
   477    676    677      1
   478    676    678      1
   479    677    679      1
   480    677    680      1
   481    678    681      1
   482    679    735      1
   483    680    682      1
   484    680   1021      1
   485    681    682      1
   486    685    686      1
   487    685    741      1
   488    686    688      1
   489    688   1087      1
   490    691    693      1
   491    692    694      1
   492    692    695      1
   493    693    695      1
   494    693   1031      1
   495    694    748      1
   496    695    696      1
   497    696    748      1
   498    696   1035      1
   499    697    699      1
   500    697    700      1
   501    699    701      1
   502    700    702      1
   503    700    755      1
   504    701    702      1
   505    701    703      1
   506    702    704      1
   507    703    705      1
   508    704    706      1
   509    704    759      1
   510    705    706      1
   511    707    711      1
   512    707    766      1
   513    708    712      1
   514    711    714      1
   515    712    713      1
   516    713    715      1
   517    714    770      1
   518    715    717      1
   519    717    720      1
   520    727    780      1
   521    727   1067      1
   522    733   1073      1
   523    733   1078      1
   524    735    736      1
   525    735   1022      1
   526    736   1079      1
   527    739    740      1
   528    739    741      1
   529    740    742      1
   530    741    743      1
   531    742    744      1
   532    743    744      1
   533    743   1087      1
   534    744   1089      1
   535    745    746      1
   536    749    750      1
   537    749    751      1
   538    750    752      1
   539    751    753      1
   540    751    803      1
   541    751    808      1
   542    752    753      1
   543    752    755      1
   544    753    756      1
   545    755    757      1
   546    756    758      1
   547    756    811      1
   548    757    758      1
   549    757    759      1
   550    763    764      1
   551    763    766      1
   552    764    767      1
   553    766    768      1
   554    767    769      1
   555    768    769      1
   556    768    770      1
   557    769    771      1
   558    770    773      1
   559    771    773      1
   560    774    775      1
   561    774    776      1
   562    775    777      1
   563    776    778      1
   564    777    778      1
   565    781    783      1
   566    794    796      1
   567    794   1132      1
   568    796    798      1
   569    797    799      1
   570    798    800      1
   571    798   1135      1
   572    800   1139      1
   573    803    805      1
   574    804    807      1
   575    804    808      1
   576    805    806      1
   577    805    807      1
   578    806    859      1
   579    806   1142      1
   580    807    809      1
   581    808    811      1
   582    809    860      1
   583    810    813      1
   584    811    814      1
   585    812   1147      1
   586    812   1201      1
   587    813    815      1
   588    815    867      1
   589    834   1120      1
   590    835    886      1
   591    836    838      1
   592    838    839      1
   593    838    888      1
   594    839    841      1
   595    841   1231      1
   596    842    845      1
   597    842   1179      1
   598    843    846      1
   599    845    846      1
   600    845    848      1
   601    846    849      1
   602    848    851      1
   603    848   1183      1
   604    849    850      1
   605    849    851      1
   606    851    852      1
   607    852    853      1
   608    852    855      1
   609    852   1137      1
   610    853    856      1
   611    853   1186      1
   612    855    857      1
   613    856    857      1
   614    856    915      1
   615    857    858      1
   616    858    861      1
   617    858    916      1
   618    859    860      1
   619    859   1194      1
   620    861    862      1
   621    862    918      1
   622    867    868      1
   623    872    874      1
   624    874    875      1
   625    875    876      1
   626    875    879      1
   627    876    878      1
   628    877    878      1
   629    877    880      1
   630    877   1213      1
   631    878    882      1
   632    879    881      1
   633    880    883      1
   634    880   1217      1
   635    881    882      1
   636    882    883      1
   637    884    886      1
   638    885    945      1
   639    885    948      1
   640    888    890      1
   641    889    890      1
   642    889    892      1
   643    890   1231      1
   644    891    893      1
   645    892   1232      1
   646    893    894      1
   647    893    895      1
   648    894    896      1
   649    895    897      1
   650    896    898      1
   651    896    899      1
   652    897    899      1
   653    898    901      1
   654    898    957      1
   655    899    900      1
   656    900    902      1
   657    901    902      1
   658    901    962      1
   659    902    905      1
   660    905    963      1
   661    915    917      1
   662    915   1249      1
   663    916    917      1
   664    917    918      1
   665    926    927      1
   666    926    929      1
   667    927    928      1
   668    927    930      1
   669    928   1268      1
   670    929    986      1
   671    930    986      1
   672    930    988      1
   673    941    942      1
   674    941    946      1
   675    942    945      1
   676    944    947      1
   677    944   1003      1
   678    946    948      1
   679    961    962      1
   680    962    963      1
   681    969   1300      1
   682    969   1301      1
   683    975    977      1
   684    976    978      1
   685    977    978      1
   686    977    981      1
   687    978    980      1
   688    980    982      1
   689    981    983      1
   690    982    983      1
   691    983    984      1
   692    984    985      1
   693    984    987      1
   694    985    990      1
   695    988   1268      1
   696   1000   1001      1
   697   1000   1002      1
   698   1001   1004      1
   699   1002   1003      1
   700   1002   1005      1
   701   1003   1006      1
   702   1010   1011      1
   703   1010   1013      1
   704   1011   1015      1
   705   1012   1013      1
   706   1013   1017      1
   707   1015   1018      1
   708   1016   1017      1
   709   1016   1019      1
   710   1017   1018      1
   711   1017   1020      1
   712   1018   1021      1
   713   1019   1024      1
   714   1019   1346      1
   715   1020   1023      1
   716   1021   1022      1
   717   1022   1080      1
   718   1023   1024      1
   719   1023   1025      1
   720   1024   1026      1
   721   1024   1081      1
   722   1025   1027      1
   723   1026   1028      1
   724   1026   1405      1
   725   1027   1028      1
   726   1030   1090      1
   727   1030   1095      1
   728   1031   1032      1
   729   1031   1034      1
   730   1032   1033      1
   731   1033   1037      1
   732   1034   1035      1
   733   1034   1037      1
   734   1035   1098      1
   735   1037   1038      1
   736   1038   1097      1
   737   1045   1047      1
   738   1045   1375      1
   739   1047   1049      1
   740   1047   1050      1
   741   1048   1049      1
   742   1048   1377      1
   743   1049   1052      1
   744   1050   1053      1
   745   1050   1103      1
   746   1052   1054      1
   747   1053   1054      1
   748   1053   1108      1
   749   1058   1111      1
   750   1058   1450      1
   751   1061   1387      1
   752   1066   1069      1
   753   1067   1068      1
   754   1068   1070      1
   755   1069   1071      1
   756   1069   1393      1
   757   1070   1071      1
   758   1070   1072      1
   759   1071   1074      1
   760   1072   1073      1
   761   1072   1076      1
   762   1074   1075      1
   763   1074   1395      1
   764   1075   1076      1
   765   1075   1077      1
   766   1076   1078      1
   767   1077   1128      1
   768   1077   1399      1
   769   1079   1082      1
   770   1080   1081      1
   771   1080   1082      1
   772   1081   1083      1
   773   1082   1084      1
   774   1083   1084      1
   775   1083   1406      1
   776   1087   1090      1
   777   1089   1091      1
   778   1090   1091      1
   779   1091   1092      1
   780   1092   1095      1
   781   1096   1099      1
   782   1096   1143      1
   783   1097   1098      1
   784   1099   1420      1
   785   1099   1421      1
   786   1099   1426      1
   787   1103   1105      1
   788   1104   1105      1
   789   1104   1106      1
   790   1105   1107      1
   791   1106   1109      1
   792   1107   1108      1
   793   1107   1109      1
   794   1108   1111      1
   795   1109   1112      1
   796   1111   1113      1
   797   1112   1113      1
   798   1113   1116      1
   799   1113   1448      1
   800   1116   1118      1
   801   1116   1119      1
   802   1117   1118      1
   803   1117   1120      1
   804   1118   1121      1
   805   1119   1450      1
   806   1122   1125      1
   807   1123   1125      1
   808   1123   1456      1
   809   1124   1126      1
   810   1125   1126      1
   811   1126   1457      1
   812   1127   1130      1
   813   1127   1178      1
   814   1128   1463      1
   815   1130   1180      1
   816   1132   1135      1
   817   1134   1185      1
   818   1134   1514      1
   819   1135   1136      1
   820   1136   1137      1
   821   1136   1183      1
   822   1137   1139      1
   823   1138   1185      1
   824   1138   1188      1
   825   1142   1191      1
   826   1143   1146      1
   827   1146   1148      1
   828   1146   1478      1
   829   1146   1482      1
   830   1147   1199      1
   831   1148   1426      1
   832   1167   1168      1
   833   1167   1169      1
   834   1168   1170      1
   835   1169   1171      1
   836   1170   1171      1
   837   1172   1174      1
   838   1172   1175      1
   839   1173   1174      1
   840   1173   1504      1
   841   1175   1502      1
   842   1175   1503      1
   843   1178   1179      1
   844   1179   1180      1
   845   1180   1183      1
   846   1181   1238      1
   847   1181   1241      1
   848   1185   1519      1
   849   1186   1246      1
   850   1187   1188      1
   851   1187   1519      1
   852   1187   1522      1
   853   1188   1189      1
   854   1189   1191      1
   855   1189   1192      1
   856   1190   1192      1
   857   1190   1522      1
   858   1191   1194      1
   859   1192   1195      1
   860   1193   1252      1
   861   1193   1256      1
   862   1194   1195      1
   863   1196   1197      1
   864   1196   1198      1
   865   1197   1199      1
   866   1198   1202      1
   867   1199   1200      1
   868   1200   1201      1
   869   1200   1202      1
   870   1207   1208      1
   871   1207   1209      1
   872   1208   1210      1
   873   1209   1211      1
   874   1209   1538      1
   875   1210   1211      1
   876   1211   1544      1
   877   1213   1214      1
   878   1214   1215      1
   879   1215   1217      1
   880   1219   1222      1
   881   1219   1547      1
   882   1219   1551      1
   883   1221   1223      1
   884   1221   1551      1
   885   1222   1223      1
   886   1224   1227      1
   887   1225   1226      1
   888   1226   1229      1
   889   1226   1614      1
   890   1227   1229      1
   891   1229   1561      1
   892   1230   1234      1
   893   1230   1502      1
   894   1231   1233      1
   895   1232   1233      1
   896   1234   1235      1
   897   1234   1237      1
   898   1235   1238      1
   899   1237   1241      1
   900   1237   1509      1
   901   1246   1249      1
   902   1247   1248      1
   903   1247   1572      1
   904   1247   1578      1
   905   1248   1250      1
   906   1250   1251      1
   907   1250   1253      1
   908   1251   1254      1
   909   1252   1253      1
   910   1252   1578      1
   911   1253   1255      1
   912   1254   1257      1
   913   1254   1310      1
   914   1255   1256      1
   915   1255   1257      1
   916   1257   1258      1
   917   1258   1314      1
   918   1281   1282      1
   919   1281   1283      1
   920   1282   1284      1
   921   1285   1287      1
   922   1287   1289      1
   923   1288   1289      1
   924   1288   1292      1
   925   1298   1299      1
   926   1298   1633      1
   927   1299   1300      1
   928   1299   1302      1
   929   1301   1304      1
   930   1302   1304      1
   931   1302   1305      1
   932   1303   1306      1
   933   1305   1634      1
   934   1310   1312      1
   935   1312   1314      1
   936   1312   1315      1
   937   1314   1316      1
   938   1315   1317      1
   939   1316   1317      1
   940   1319   1320      1
   941   1319   1321      1
   942   1320   1322      1
   943   1320   1649      1
   944   1321   1323      1
   945   1322   1323      1
   946   1322   1654      1
   947   1331   1332      1
   948   1331   1666      1
   949   1332   1333      1
   950   1333   1334      1
   951   1333   1335      1
   952   1334   1666      1
   953   1344   1347      1
   954   1346   1349      1
   955   1347   1348      1
   956   1348   1689      1
   957   1349   1351      1
   958   1349   1403      1
   959   1349   1405      1
   960   1350   1351      1
   961   1350   1352      1
   962   1351   1353      1
   963   1352   1354      1
   964   1352   1356      1
   965   1353   1355      1
   966   1353   1408      1
   967   1354   1631      1
   968   1355   1356      1
   969   1356   1358      1
   970   1358   1359      1
   971   1359   1631      1
   972   1363   1702      1
   973   1370   1702      1
   974   1370   1707      1
   975   1373   1374      1
   976   1373   1376      1
   977   1374   1375      1
   978   1375   1377      1
   979   1376   1378      1
   980   1376   1711      1
   981   1377   1378      1
   982   1378   1379      1
   983   1379   1380      1
   984   1379   1382      1
   985   1380   1383      1
   986   1380   1713      1
   987   1381   1442      1
   988   1381   1718      1
   989   1382   1384      1
   990   1383   1385      1
   991   1384   1385      1
   992   1384   1386      1
   993   1386   1387      1
   994   1389   1390      1
   995   1389   1731      1
   996   1391   1392      1
   997   1391   1393      1
   998   1392   1394      1
   999   1392   1736      1
  1000   1393   1395      1
  1001   1394   1396      1
  1002   1394   1397      1
  1003   1395   1397      1
  1004   1396   1739      1
  1005   1397   1399      1
  1006   1399   1462      1
  1007   1400   1401      1
  1008   1400   1402      1
  1009   1401   1403      1
  1010   1402   1404      1
  1011   1403   1404      1
  1012   1403   1408      1
  1013   1404   1407      1
  1014   1405   1406      1
  1015   1406   1407      1
  1016   1410   1411      1
  1017   1410   1412      1
  1018   1411   1413      1
  1019   1412   1414      1
  1020   1413   1414      1
  1021   1413   1417      1
  1022   1414   1418      1
  1023   1417   1419      1
  1024   1418   1419      1
  1025   1418   1420      1
  1026   1419   1421      1
  1027   1420   1422      1
  1028   1421   1478      1
  1029   1422   1425      1
  1030   1425   1428      1
  1031   1425   1429      1
  1032   1426   1429      1
  1033   1428   1431      1
  1034   1429   1433      1
  1035   1431   1434      1
  1036   1431   1435      1
  1037   1433   1435      1
  1038   1434   1439      1
  1039   1435   1440      1
  1040   1436   1438      1
  1041   1436   1441      1
  1042   1438   1486      1
  1043   1439   1442      1
  1044   1439   1714      1
  1045   1440   1442      1
  1046   1441   1487      1
  1047   1441   1775      1
  1048   1444   1487      1
  1049   1444   1779      1
  1050   1447   1452      1
  1051   1447   1496      1
  1052   1448   1450      1
  1053   1452   1498      1
  1054   1454   1789      1
  1055   1456   1457      1
  1056   1462   1463      1
  1057   1464   1465      1
  1058   1464   1800      1
  1059   1465   1801      1
  1060   1473   1520      1
  1061   1473   1525      1
  1062   1473   1812      1
  1063   1476   1478      1
  1064   1476   1480      1
  1065   1477   1525      1
  1066   1477   1531      1
  1067   1477   1817      1
  1068   1480   1482      1
  1069   1483   1484      1
  1070   1483   1531      1
  1071   1483   1534      1
  1072   1484   1820      1
  1073   1484   1873      1
  1074   1486   1487      1
  1075   1488   1489      1
  1076   1488   1541      1
  1077   1488   1827      1
  1078   1489   1540      1
  1079   1496   1497      1
  1080   1497   1498      1
  1081   1497   1786      1
  1082   1499   1501      1
  1083   1500   1841      1
  1084   1500   1842      1
  1085   1501   1560      1
  1086   1501   1841      1
  1087   1502   1506      1
  1088   1503   1504      1
  1089   1503   1505      1
  1090   1505   1506      1
  1091   1505   1507      1
  1092   1506   1509      1
  1093   1507   1510      1
  1094   1509   1512      1
  1095   1510   1512      1
  1096   1514   1515      1
  1097   1515   1519      1
  1098   1517   1520      1
  1099   1517   1855      1
  1100   1518   1521      1
  1101   1518   1855      1
  1102   1520   1521      1
  1103   1521   1523      1
  1104   1523   1524      1
  1105   1523   1526      1
  1106   1524   1527      1
  1107   1524   1579      1
  1108   1525   1526      1
  1109   1526   1528      1
  1110   1527   1529      1
  1111   1527   1584      1
  1112   1528   1529      1
  1113   1528   1530      1
  1114   1530   1531      1
  1115   1532   1533      1
  1116   1532   1590      1
  1117   1533   1593      1
  1118   1534   1536      1
  1119   1535   1536      1
  1120   1535   1873      1
  1121   1535   1877      1
  1122   1538   1540      1
  1123   1540   1543      1
  1124   1541   1542      1
  1125   1541   1882      1
  1126   1542   1543      1
  1127   1543   1544      1
  1128   1546   1547      1
  1129   1546   1548      1
  1130   1548   1550      1
  1131   1549   1610      1
  1132   1549   1889      1
  1133   1550   1551      1
  1134   1556   1557      1
  1135   1556   1559      1
  1136   1557   1558      1
  1137   1557   1561      1
  1138   1557   1613      1
  1139   1558   1897      1
  1140   1559   1560      1
  1141   1559   1562      1
  1142   1560   1904      1
  1143   1561   1562      1
  1144   1572   1573      1
  1145   1573   1577      1
  1146   1577   1578      1
  1147   1579   1580      1
  1148   1580   1584      1
  1149   1580   1920      1
  1150   1581   1585      1
  1151   1581   1638      1
  1152   1581   1920      1
  1153   1582   1583      1
  1154   1582   1640      1
  1155   1583   1586      1
  1156   1584   1587      1
  1157   1585   1587      1
  1158   1585   1642      1
  1159   1586   1588      1
  1160   1586   1589      1
  1161   1588   1590      1
  1162   1589   1591      1
  1163   1589   1643      1
  1164   1590   1592      1
  1165   1591   1592      1
  1166   1592   1593      1
  1167   1594   1597      1
  1168   1594   1651      1
  1169   1594   1931      1
  1170   1597   1655      1
  1171   1610   1946      1
  1172   1613   1614      1
  1173   1615   1619      1
  1174   1615   1952      1
  1175   1618   1621      1
  1176   1618   1953      1
  1177   1619   1621      1
  1178   1621   1958      1
  1179   1633   1634      1
  1180   1634   1637      1
  1181   1636   1637      1
  1182   1638   1641      1
  1183   1640   1643      1
  1184   1641   1642      1
  1185   1645   1646      1
  1186   1645   1647      1
  1187   1646   1649      1
  1188   1647   1648      1
  1189   1647   1650      1
  1190   1648   1651      1
  1191   1648   1984      1
  1192   1649   1650      1
  1193   1650   1652      1
  1194   1651   1653      1
  1195   1652   1653      1
  1196   1652   1654      1
  1197   1653   1655      1
  1198   1654   1657      1
  1199   1655   1656      1
  1200   1655   1658      1
  1201   1656   1657      1
  1202   1657   1660      1
  1203   1658   1659      1
  1204   1658   1991      1
  1205   1659   1660      1
  1206   1659   1661      1
  1207   1661   1662      1
  1208   1661   1996      1
  1209   1662   1664      1
  1210   1664   1665      1
  1211   1665   1666      1
  1212   1666   1671      1
  1213   1667   1669      1
  1214   1668   1670      1
  1215   1669   1671      1
  1216   1669   2003      1
  1217   1670   2003      1
  1218   1676   1733      1
  1219   1676   1741      1
  1220   1681   1741      1
  1221   1686   1688      1
  1222   1686   1745      1
  1223   1687   1689      1
  1224   1688   1690      1
  1225   1690   1748      1
  1226   1698   1755      1
  1227   1701   1703      1
  1228   1701   1704      1
  1229   1702   1704      1
  1230   1704   1706      1
  1231   1706   1707      1
  1232   1711   1713      1
  1233   1712   1714      1
  1234   1712   1716      1
  1235   1714   1718      1
  1236   1715   1716      1
  1237   1715   1717      1
  1238   1716   1719      1
  1239   1717   1721      1
  1240   1718   1719      1
  1241   1719   1722      1
  1242   1721   1722      1
  1243   1726   1727      1
  1244   1726   1729      1
  1245   1727   1730      1
  1246   1728   1729      1
  1247   1729   1731      1
  1248   1730   1731      1
  1249   1733   1734      1
  1250   1734   1738      1
  1251   1736   1739      1
  1252   1737   1738      1
  1253   1738   1742      1
  1254   1741   1742      1
  1255   1743   1744      1
  1256   1743   1797      1
  1257   1744   1746      1
  1258   1744   1804      1
  1259   1745   1747      1
  1260   1746   1747      1
  1261   1746   1749      1
  1262   1747   1748      1
  1263   1748   1751      1
  1264   1749   1750      1
  1265   1749   1751      1
  1266   1749   1752      1
  1267   1750   1806      1
  1268   1752   1807      1
  1269   1754   1756      1
  1270   1754   1757      1
  1271   1755   1756      1
  1272   1756   1759      1
  1273   1757   1813      1
  1274   1774   1775      1
  1275   1774   1776      1
  1276   1775   1778      1
  1277   1776   1777      1
  1278   1777   1778      1
  1279   1778   1779      1
  1280   1784   1785      1
  1281   1784   1786      1
  1282   1785   1787      1
  1283   1786   1838      1
  1284   1787   1788      1
  1285   1788   1838      1
  1286   1790   1793      1
  1287   1792   1793      1
  1288   1792   1840      1
  1289   1794   1796      1
  1290   1794   1842      1
  1291   1796   1799      1
  1292   1797   1799      1
  1293   1799   1800      1
  1294   1799   1801      1
  1295   1800   1844      1
  1296   1800   1850      1
  1297   1801   1803      1
  1298   1801   1804      1
  1299   1802   1803      1
  1300   1802   1850      1
  1301   1804   1807      1
  1302   1809   1811      1
  1303   1810   1812      1
  1304   1810   1860      1
  1305   1812   1814      1
  1306   1814   1817      1
  1307   1814   1864      1
  1308   1817   1820      1
  1309   1820   1870      1
  1310   1822   1823      1
  1311   1822   1824      1
  1312   1823   1826      1
  1313   1824   1827      1
  1314   1826   1828      1
  1315   1827   1828      1
  1316   1828   1829      1
  1317   1829   1830      1
  1318   1829   1882      1
  1319   1830   1887      1
  1320   1831   1833      1
  1321   1833   1834      1
  1322   1834   1836      1
  1323   1835   1836      1
  1324   1835   1894      1
  1325   1839   1840      1
  1326   1841   1843      1
  1327   1842   1844      1
  1328   1843   1845      1
  1329   1843   1848      1
  1330   1844   1845      1
  1331   1845   1849      1
  1332   1846   1847      1
  1333   1847   1907      1
  1334   1848   1904      1
  1335   1849   1850      1
  1336   1851   1853      1
  1337   1851   1907      1
  1338   1853   1854      1
  1339   1854   1856      1
  1340   1855   1857      1
  1341   1856   1858      1
  1342   1857   1859      1
  1343   1857   1860      1
  1344   1859   1861      1
  1345   1860   1862      1
  1346   1861   1862      1
  1347   1861   1863      1
  1348   1862   1864      1
  1349   1863   1865      1
  1350   1864   1866      1
  1351   1865   1866      1
  1352   1865   1867      1
  1353   1866   1868      1
  1354   1867   1869      1
  1355   1868   1869      1
  1356   1868   1870      1
  1357   1869   1872      1
  1358   1870   1871      1
  1359   1871   1873      1
  1360   1871   1874      1
  1361   1872   1874      1
  1362   1874   1876      1
  1363   1876   1877      1
  1364   1882   1885      1
  1365   1885   1886      1
  1366   1886   1887      1
  1367   1886   1889      1
  1368   1887   1888      1
  1369   1888   1891      1
  1370   1889   1890      1
  1371   1890   1891      1
  1372   1890   1892      1
  1373   1891   1893      1
  1374   1892   1946      1
  1375   1892   1947      1
  1376   1893   1894      1
  1377   1895   1947      1
  1378   1898   1899      1
  1379   1923   1924      1
  1380   1923   1925      1
  1381   1924   1926      1
  1382   1925   1927      1
  1383   1926   1927      1
  1384   1926   1928      1
  1385   1927   1929      1
  1386   1928   1982      1
  1387   1929   1982      1
  1388   1931   1933      1
  1389   1931   1985      1
  1390   1933   1934      1
  1391   1933   1936      1
  1392   1934   1935      1
  1393   1935   1937      1
  1394   1936   1937      1
  1395   1936   1938      1
  1396   1937   1939      1
  1397   1938   1940      1
  1398   1939   1941      1
  1399   1939   1942      1
  1400   1940   1941      1
  1401   1940   1992      1
  1402   1941   1943      1
  1403   1943   1944      1
  1404   1944   1945      1
  1405   1944   1995      1
  1406   1945   2002      1
  1407   1946   1948      1
  1408   1952   1953      1
  1409   1958   1960      1
  1410   1960   1962      1
  1411   1975   1976      1
  1412   1975   1977      1
  1413   1976   1978      1
  1414   1977   1980      1
  1415   1978   1979      1
  1416   1978   1981      1
  1417   1980   1981      1
  1418   1981   1983      1
  1419   1984   1985      1
  1420   1991   1994      1
  1421   1992   1995      1
  1422   1993   1996      1
  1423   1994   1996      1
  1424   1994   1997      1
  1425   1995   1997      1
  1426   1996   1999      1
  1427   1997   2000      1
  1428   1999   2001      1
  1429   2000   2001      1
  1430   2000   2002      1
  1431   2001   2003      1
  1432   2002   2004      1
  1433   2005   2006     du
  1434   2006   2007     du
  1435   2007   2008     du
  1436   2008   2005     du
  1437   2009   2010     du
  1438   2010   2011     du
  1439   2011   2012     du
  1440   2012   2009     du
  1441   2008   2012     du
  1442   2009   2005     du
  1443   2007   2011     du
  1444   2010   2006     du
