@<TRIPOS>MOLECULE
HEADER,  fused.mol2  read w/ mol2SYBYL2lmp > lmp2SYBYLmol2 v3.0 / 24 May 2023 w/remove_PBC_bonds=True
  46 54    0    0    0
SMALL
NO_CHARGES
****
Energy = 0

@<TRIPOS>ATOM
      1 N           -1.7795    -0.5852    -0.6988 N       1      m1     0.0000
      2 C           -2.9440    -1.2705    -0.6988 C       1      m1     0.0000
      3 C           -3.0282    -2.6499    -0.6987 C       1      m1     0.0000
      4 C           -1.8431    -3.3749    -0.6987 C       1      m1     0.0000
      5 C            0.5825    -0.6188    -0.6987 C       1      m1     0.0000
      6 C           -0.6332    -1.2897    -0.6987 C       1      m1     0.0000
      7 C           -0.6144    -2.7013    -0.6987 C       1      m1     0.0000
      8 C            0.6094    -3.3939    -0.6987 C       1      m1     0.0000
      9 C            1.8144    -2.6942    -0.6987 C       1      m1     0.0000
     10 C            1.8015    -1.3040    -0.6986 C       1      m1     0.0000
     11 C           -1.1660     1.6022    -0.3487 C       1      m1     0.0000
     12 C           -2.2872     0.2967     1.3692 C       1      m1     0.0000
     13 C           -2.2577     1.3838     2.2453 C       1      m1     0.0000
     14 O            4.1871    -1.1894    -0.6984 O       1      m1     0.0000
     15 C            3.0527     0.7484    -0.6985 C       1      m1     0.0000
     16 C            4.4379     1.0420    -0.6983 C       1      m1     0.0000
     17 C            5.0860    -0.1713    -0.6984 C       1      m1     0.0000
     18 C           -1.7445     0.4052     0.0793 C       1      m1     0.0000
     19 O           -1.0183     4.7710     1.5161 O       1      m1     0.0000
     20 C           -0.5910     4.0340     0.3460 C       1      m1     0.0000
     21 C           -1.1499     2.6722     0.5296 C       1      m1     0.0000
     22 C           -1.6861     2.5650     1.8038 C       1      m1     0.0000
     23 C           -1.5063     3.8510     2.5210 C       1      m1     0.0000
     24 C            2.9524    -0.6235    -0.6985 C       1      m1     0.0000
     25 O           -1.7202     4.0799     3.6877 O       1      m1     0.0000
     26 O            0.0746     4.4389    -0.5772 O       1      m1     0.0000
     27 H           -3.8818    -0.6955    -0.6990 H       1      m1     0.0000
     28 H           -4.0037    -3.1582    -0.6987 H       1      m1     0.0000
     29 H           -1.8693    -4.4746    -0.6987 H       1      m1     0.0000
     30 H            0.5868     0.4812    -0.6988 H       1      m1     0.0000
     31 H            0.6155    -4.4939    -0.6986 H       1      m1     0.0000
     32 H            2.7702    -3.2386    -0.6987 H       1      m1     0.0000
     33 H           -0.7347     1.6923    -1.3567 H       1      m1     0.0000
     34 H           -2.7394    -0.6524     1.6926 H       1      m1     0.0000
     35 H           -2.6774     1.3039     3.2589 H       1      m1     0.0000
     36 H            2.2239     1.4716    -0.6985 H       1      m1     0.0000
     37 H            4.9021     2.0393    -0.6982 H       1      m1     0.0000
     38 H            6.1786    -0.2990    -0.6983 H       1      m1     0.0000
     39 B            6.6786    -4.9939     4.1877 B       2     BOX     0.0000
     40 B           -4.5037    -4.9939     4.1877 B       2     BOX     0.0000
     41 B           -4.5037     5.2710     4.1877 B       2     BOX     0.0000
     42 B            6.6786     5.2710     4.1877 B       2     BOX     0.0000
     43 B            6.6786    -4.9939    -1.8567 B       2     BOX     0.0000
     44 B           -4.5037    -4.9939    -1.8567 B       2     BOX     0.0000
     45 B           -4.5037     5.2710    -1.8567 B       2     BOX     0.0000
     46 B            6.6786     5.2710    -1.8567 B       2     BOX     0.0000
@<TRIPOS>BOND
     1      1      2      1
     2      1      6      1
     3      1     18      1
     4      2      3      1
     5      2     27      1
     6      3      4      1
     7      3     28      1
     8      4      7      1
     9      4     29      1
    10      5      6      1
    11      5     10      1
    12      5     30      1
    13      6      7      1
    14      7      8      1
    15      8      9      1
    16      8     31      1
    17      9     10      1
    18      9     32      1
    19     10     24      1
    20     11     18      1
    21     11     21      1
    22     11     33      1
    23     12     13      1
    24     12     18      1
    25     12     34      1
    26     13     22      1
    27     13     35      1
    28     14     17      1
    29     14     24      1
    30     15     16      1
    31     15     24      1
    32     15     36      1
    33     16     17      1
    34     16     37      1
    35     17     38      1
    36     19     20      1
    37     19     23      1
    38     20     21      1
    39     20     26      1
    40     21     22      1
    41     22     23      1
    42     23     25      1
    43     39     40     du
    44     40     41     du
    45     41     42     du
    46     42     39     du
    47     43     44     du
    48     44     45     du
    49     45     46     du
    50     46     43     du
    51     42     46     du
    52     43     39     du
    53     41     45     du
    54     44     40     du
