@<TRIPOS>MOLECULE
LAMMPS data file via write_data, version 29 Oct 2020, timestep = 1000 > lmp2SYBYLmol2 v3.0 / 24 May 2023 w/remove_PBC_bonds=True
  4679 4767    0    0    0
SMALL
NO_CHARGES
****
Energy = 0

@<TRIPOS>ATOM
      1 C           -3.9318    -2.5205     5.3667 C       0      r0     0.2259
      2 C           -2.9727    -2.7489     6.4354 C       0      r0     0.0233
      3 C           -2.5816    -1.8810     7.4355 C       0      r0    -0.0139
      4 C           -3.1122    -0.6869     7.9483 C       0      r0     0.1500
      5 C           -2.2603     0.0031     8.9773 C       0      r0     0.0001
      6 O           -4.2227    -0.0694     7.6871 O       0      r0    -0.4913
      7 O           -4.4566    -3.3936     4.7817 O       0      r0    -0.4515
      8 C           -1.3849     1.0882     8.3156 C       5      r5     0.1328
      9 C           -1.2642     1.2504     6.9197 C       5      r5    -0.0296
     10 C           -0.5504     2.4150     6.7907 C       5      r5    -0.0317
     11 C           -0.1158     2.8685     8.1014 C       5      r5     0.1014
     12 O           -0.7086     1.8185     9.2147 O       5      r5    -0.4732
     13 C            0.6753     3.8915     8.3389 C       0      r0    -0.0031
     14 C           -4.3745    -1.1293     4.8089 C       0      r0     0.0352
     15 C           -1.1729     1.0830     2.6365 C       0      r0     0.0016
     16 C           -2.5306     1.5148     2.7369 C       0      r0    -0.0480
     17 C           -3.4909     0.7805     3.4500 C       0      r0    -0.0192
     18 C           -3.1728    -0.2727     4.3543 C       0      r0     0.1761
     19 O           -2.1234    -0.7282     4.6637 O       0      r0    -0.4967
     20 H           -2.5234    -3.7366     6.2780 H       0      r0     0.0810
     21 H           -1.6948    -2.2433     7.9531 H       0      r0     0.0280
     22 H           -2.9040     0.3765     9.7763 H       0      r0     0.0934
     23 H           -1.6505    -0.7495     9.4626 H       0      r0     0.0421
     24 H           -1.6887     0.5734     6.1798 H       0      r0     0.1021
     25 H           -0.3509     2.9186     5.8765 H       0      r0     0.0475
     26 H            0.9102     4.4251     7.4887 H       0      r0     0.0744
     27 H            1.0829     4.1333     9.2552 H       0      r0     0.1047
     28 H           -5.1837    -1.1349     4.0834 H       0      r0     0.0693
     29 H           -4.8613    -0.6924     5.6802 H       0      r0     0.1017
     30 H           -2.9290     2.3362     2.1373 H       0      r0     0.0436
     31 H           -4.5433     1.0086     3.4094 H       0      r0     0.0762
     32 C           -6.8066     5.8269     8.2344 C       0      r0     0.1948
     33 C           -8.1667     5.9834     7.7338 C       0      r0     0.0028
     34 C           -8.6165     7.0595     7.0839 C       0      r0    -0.0221
     35 C           -7.9098     8.3370     6.9346 C       0      r0     0.1695
     36 C           -8.8126     9.4893     6.3737 C       0      r0    -0.0118
     37 O           -6.8666     8.6335     7.3738 O       0      r0    -0.4760
     38 O           -6.5035     5.4065     9.2947 O       0      r0    -0.4494
     39 C           -9.5488    10.1605     7.5744 C       5      r5     0.1325
     40 C           -9.0028    10.0732     8.8050 C       5      r5    -0.0159
     41 C           -9.7885    10.8926     9.6339 C       5      r5    -0.0285
     42 C          -10.7717    11.5151     8.7975 C       5      r5     0.0963
     43 O          -10.6928    10.9047     7.3313 O       5      r5    -0.4738
     44 C          -11.6274    12.4032     9.2636 C       0      r0    -0.0230
     45 C           -5.6760     6.2056     7.2265 C       0      r0     0.0304
     46 C           -4.5795     1.4912     7.5149 C       0      r0     0.0982
     47 C           -4.5175     2.6095     6.8195 C       0      r0    -0.0121
     48 C           -5.1716     3.9380     7.2290 C       0      r0     0.0014
     49 C           -5.0229     4.9868     6.5931 C       0      r0     0.1367
     50 O           -4.1752     5.2273     5.4579 O       0      r0    -0.4961
     51 H           -8.7798     5.0891     7.8904 H       0      r0     0.1128
     52 H           -9.5751     7.1494     6.6109 H       0      r0     0.0380
     53 H           -8.1878    10.2092     5.8386 H       0      r0     0.0811
     54 H           -9.5371     9.3012     5.5182 H       0      r0     0.0497
     55 H           -8.1483     9.4242     8.9575 H       0      r0     0.0974
     56 H           -9.6930    11.0177    10.7560 H       0      r0     0.1025
     57 H          -11.5558    12.7548    10.2697 H       0      r0     0.0718
     58 H          -12.4370    12.8864     8.6842 H       0      r0     0.0711
     59 H           -5.9328     6.8371     6.3820 H       0      r0     0.1054
     60 H           -4.9209     6.8216     7.6623 H       0      r0     0.1132
     61 H           -3.9480     2.5386     5.8904 H       0      r0     0.0893
     62 H           -5.8240     3.7870     8.0854 H       0      r0     0.0911
     63 C           11.0160   -16.2705     6.2384 C       5      r5     0.1446
     64 O           12.2099   -16.4218     5.4991 O       5      r5    -0.4727
     65 C           13.0968   -16.7181     6.7186 C       5      r5     0.1057
     66 C           12.5156   -16.5963     7.9601 C       5      r5    -0.0191
     67 C           11.1561   -16.3577     7.6354 C       5      r5     0.0074
     68 C            9.7696   -15.9732     5.6376 C       0      r0     0.0097
     69 C           15.2920   -17.7949     7.3336 C       5      r5     0.1266
     70 O           16.6741   -17.8715     7.0322 O       5      r5    -0.4539
     71 C           17.0510   -18.5774     8.3071 C       5      r5     0.2091
     72 C           15.7887    18.9512     9.0427 C       5      r5    -0.0299
     73 C           14.7394   -18.4516     8.4345 C       5      r5    -0.0392
     74 C           14.4437   -17.0988     6.4799 C       0      r0     0.0184
     75 C            8.5991   -15.5587     6.3499 C       5      r5     0.1523
     76 C            7.4201   -15.4671     5.5319 C       5      r5    -0.0128
     77 C            6.2625   -15.3465     6.3012 C       5      r5    -0.0107
     78 C            6.8621   -15.2014     7.5987 C       5      r5     0.0998
     79 O            8.4933   -15.3828     7.6653 O       5      r5    -0.4708
     80 C            5.9529   -14.9898     8.4365 C       0      r0    -0.0407
     81 H           12.8921   -16.6647     8.9465 H       0      r0     0.0584
     82 H           10.3369   -16.1807     8.3192 H       0      r0     0.1083
     83 H            9.9228   -15.9071     4.5878 H       0      r0     0.0697
     84 H           15.7665    18.2428     9.9276 H       0      r0     0.0297
     85 H           13.7060   -18.6156     8.7085 H       0      r0     0.0410
     86 H           14.8391   -16.8618     5.5335 H       0      r0     0.1134
     87 H            7.4505   -15.6398     4.5028 H       0      r0     0.0419
     88 H            5.2672   -15.2099     6.0056 H       0      r0     0.0643
     89 H            4.8576   -14.9542     8.2140 H       0      r0     0.0528
     90 H            6.1026   -14.8337     9.5080 H       0      r0     0.0526
     91 C            7.4519   -14.1484    15.5091 C       5      r5     0.1229
     92 O            6.4130   -13.1263    14.9183 O       5      r5    -0.4452
     93 C            6.7840   -12.0842    15.7476 C       5      r5     0.1493
     94 C            7.9087   -12.3201    16.6141 C       5      r5    -0.0177
     95 C            8.2844   -13.6653    16.4797 C       5      r5    -0.0097
     96 C            7.4840   -15.5032    15.0791 C       0      r0     0.0102
     97 C            6.5766    -9.6768    16.4532 C       3      r3     0.1620
     98 O            6.2629    -8.5221    16.8672 O       3      r3    -0.4723
     99 C            9.0106    -7.8770    15.5575 C       0      r0     0.1836
    100 C            9.0045    -8.8338    16.5251 C       0      r0     0.0131
    101 C            7.7244    -9.2959    17.2135 C       3      r3     0.0687
    102 C            6.1797   -10.8079    15.7381 C       0      r0     0.0262
    103 C            8.2577   -16.5146    15.7050 C       5      r5     0.1229
    104 C            7.9839   -17.6109    14.9523 C       5      r5    -0.0375
    105 C            8.6275   -18.6290    15.7282 C       5      r5    -0.0370
    106 C            9.3383   -18.0011    16.8399 C       5      r5     0.1077
    107 O            9.1996   -16.3895    17.0124 O       5      r5    -0.4527
    108 C            9.9184   -18.8671    17.4852 C       0      r0    -0.0273
    109 H            8.3689   -11.6001    17.3142 H       0      r0     0.0534
    110 H            9.0830   -14.1778    17.0055 H       0      r0     0.0924
    111 H            6.8461   -15.7132    14.2232 H       0      r0     0.0640
    112 H           10.0221    -9.1681    16.6617 H       0      r0     0.0878
    113 H            7.9170    -9.7627    18.1612 H       0      r0     0.1029
    114 H            5.2324   -10.7731    15.1417 H       0      r0     0.1354
    115 H            7.3685   -17.7210    14.0668 H       0      r0     0.0353
    116 H            8.4701    18.2870    15.5233 H       0      r0     0.0374
    117 H            9.9550    18.0240    17.2653 H       0      r0     0.0791
    118 H           10.4086   -18.5661    18.4193 H       0      r0     0.0895
    119 C           -6.9748   -15.0693     3.7782 C       5      r5     0.1655
    120 O           -7.5334   -14.7622     4.9873 O       5      r5    -0.4476
    121 C           -7.5221   -13.2252     4.7202 C       5      r5     0.1376
    122 C           -7.0480   -12.7397     3.4592 C       5      r5    -0.0558
    123 C           -6.6779   -13.9237     2.8819 C       5      r5    -0.0451
    124 C           -6.7277   -16.2978     3.3682 C       0      r0     0.1779
    125 C           -7.8734   -12.1634     5.3869 C       0      r0     0.1345
    126 H           -7.0446   -11.7508     3.0226 H       0      r0     0.0268
    127 H           -6.2063   -13.9797     1.9129 H       0      r0     0.0375
    128 H           -6.4089   -16.4393     2.3244 H       0      r0     0.0796
    129 H           -7.8880   -11.1118     5.0437 H       0      r0     0.0710
    130 C          -13.9630    10.8559     1.4458 C       5      r5     0.1184
    131 O          -12.4817    11.2710     0.6232 O       5      r5    -0.4373
    132 C          -12.1477     9.6967     0.5684 C       5      r5     0.1118
    133 C          -13.1570     8.8783     1.2707 C       5      r5    -0.0228
    134 C          -14.2561     9.4875     1.7889 C       5      r5    -0.0567
    135 C          -14.8827    11.5822     1.7996 C       0      r0     0.1298
    136 C          -11.1734     9.0827    -0.0559 C       0      r0     0.0000
    137 H          -13.0675     7.7149     1.2930 H       0      r0     0.1055
    138 H          -15.1044     9.0564     2.3924 H       0      r0     0.0334
    139 H          -15.8149    11.2284     2.2856 H       0      r0     0.0616
    140 H          -10.4075     8.4657    -0.4421 H       0      r0     0.0845
    141 C          -17.7508     6.7858    15.9783 C       0      r0     0.0058
    142 O          -17.1291     9.5051    15.8955 O       0      r0    -0.4475
    143 C          -18.5117     9.5942    15.0915 C       0      r0     0.1152
    144 C           17.9539     8.4109    14.8140 C       0      r0    -0.0353
    145 C           18.4101     7.1319    15.1330 C       0      r0    -0.0267
    146 C          -16.7959     6.5391    16.6409 C       0      r0    -0.0121
    147 C           18.2454    10.6961    14.6276 C       0      r0    -0.0136
    148 H           17.0185     8.5976    14.2776 H       0      r0     0.0464
    149 H           17.9552     6.2214    14.7184 H       0      r0     0.0661
    150 H          -15.9313     6.3938    17.2421 H       0      r0     0.1170
    151 H           18.0720    11.7122    14.4000 H       0      r0     0.1285
    152 C          -14.5241   -14.3400     8.3760 C       5      r5     0.1002
    153 O          -13.2868   -15.0049     7.6749 O       5      r5    -0.4922
    154 C          -13.1852   -16.1050     8.5464 C       5      r5     0.1272
    155 C          -14.0399   -16.2172     9.6564 C       5      r5    -0.0265
    156 C          -14.9223   -15.1862     9.4770 C       5      r5    -0.0292
    157 C          -15.0582   -13.1544     8.2090 C       0      r0    -0.0195
    158 C          -12.1319   -17.1369     8.4525 C       0      r0     0.0141
    159 H          -14.0860   -17.0227    10.4055 H       0      r0     0.0889
    160 H          -15.7550   -14.9420    10.1381 H       0      r0     0.0517
    161 H          -15.5497   -12.1975     8.2465 H       0      r0     0.0765
    162 H          -12.0523   -17.8086     9.2762 H       0      r0     0.0979
    163 C           -7.8541     4.3518    13.3758 C       5      r5     0.0926
    164 O           -9.4143     3.8742    13.2883 O       5      r5    -0.4633
    165 C           -9.8583     4.6952    14.3142 C       5      r5     0.1839
    166 C           -8.8043     5.4252    15.0330 C       5      r5    -0.0308
    167 C           -7.5409     5.1886    14.4859 C       5      r5    -0.0417
    168 C           -6.8089     4.3016    12.6131 C       0      r0    -0.0342
    169 C          -11.1056     4.9803    14.6020 C       0      r0     0.1766
    170 H           -8.9523     5.9125    15.9260 H       0      r0     0.0472
    171 H           -6.6270     5.6442    14.7797 H       0      r0     0.0358
    172 H           -6.0151     4.1610    11.9232 H       0      r0     0.0725
    173 H          -11.3929     5.7297    15.3316 H       0      r0     0.0898
    174 C          -12.3656    -4.8915   -11.1277 C       6      r6    -0.0229
    175 C          -13.2207    -4.7650   -10.0245 C       6      r6    -0.0498
    176 C          -12.4888    -4.9587    -8.8691 C       6      r6    -0.0309
    177 C          -11.0019    -4.7424    -8.8711 C       6      r6     0.1242
    178 C           -8.9889    -5.7819    -9.9337 C       5      r5     0.1735
    179 O           -8.7551    -5.1518   -11.1247 O       5      r5    -0.4955
    180 C           -9.9167    -5.5646   -11.9321 C       5      r5     0.1197
    181 C          -11.1560    -5.8894   -11.0933 C       6      r6    -0.0212
    182 C          -10.4201    -5.8998    -9.6520 C       6      r6     0.0237
    183 C           -9.8980    -5.6059   -13.2930 C       0      r0     0.0001
    184 C          -12.8345    -4.2960   -12.4754 C       0      r0    -0.0333
    185 C          -10.4900    -4.6843    -7.3316 C       0      r0     0.0070
    186 C           -7.9887    -6.4611    -9.1978 C       0      r0     0.0186
    187 O          -10.4970    -3.5180    -9.5956 O       0      r0    -0.5687
    188 C          -11.9327    -6.6785   -16.1372 C       5      r5     0.1215
    189 C          -12.6300    -7.2756   -15.0685 C       5      r5    -0.0158
    190 C          -11.9845    -6.7630   -13.9064 C       5      r5    -0.0204
    191 C          -10.8276    -6.0915   -14.2870 C       5      r5     0.1141
    192 O          -10.5970    -5.9656   -15.6765 O       5      r5    -0.4714
    193 O           -9.4441    -7.5735    -7.4504 O       5      r5    -0.4717
    194 C           -8.2381    -7.2721    -8.0390 C       5      r5     0.1434
    195 C           -7.0763    -7.8544    -7.5344 C       5      r5    -0.0123
    196 C           -7.3438    -8.6986    -6.4202 C       5      r5    -0.0279
    197 C           -8.7600    -8.5004    -6.3354 C       5      r5     0.1114
    198 O          -13.9579    -2.1352   -13.2509 O       5      r5    -0.4659
    199 C          -14.0809    -0.7887   -12.3655 C       5      r5     0.0894
    200 C          -13.1508    -0.8499   -11.2309 C       5      r5    -0.0232
    201 C          -12.5589    -2.0745   -11.3163 C       5      r5    -0.0139
    202 C          -13.1360    -2.7212   -12.3817 C       5      r5     0.1400
    203 C           -9.2000    -3.9111    -7.1138 C       5      r5     0.1670
    204 C           -9.0767    -3.3559    -5.7917 C       5      r5    -0.0243
    205 C           -8.1062    -2.4481    -5.8901 C       5      r5    -0.0419
    206 C           -7.5347    -2.5089    -7.2707 C       5      r5     0.0807
    207 O           -8.3070    -3.7188    -8.0877 O       5      r5    -0.4578
    208 C          -14.7747     0.1741   -12.6520 C       0      r0    -0.0339
    209 C           -9.1995    -9.1977    -5.3300 C       0      r0    -0.0197
    210 H          -14.2704    -4.6113   -10.0509 H       0      r0     0.0439
    211 H          -13.0365    -4.9021    -7.9352 H       0      r0     0.0757
    212 H          -11.4575    -6.8675   -11.3960 H       0      r0     0.0297
    213 H          -10.6721    -6.7940    -9.0739 H       0      r0     0.0828
    214 H           -8.9375    -5.1198   -13.5113 H       0      r0     0.1090
    215 H          -11.9010    -4.4316   -12.9829 H       0      r0     0.0486
    216 H          -13.5633    -4.9282   -13.0181 H       0      r0     0.1061
    217 H          -11.2800    -4.3686    -6.6503 H       0      r0     0.1018
    218 H          -10.3091    -5.7124    -6.9692 H       0      r0     0.0989
    219 H           -6.9651    -6.4248    -9.4365 H       0      r0     0.0551
    220 H          -13.4739    -7.9810   -15.1450 H       0      r0     0.0502
    221 H          -12.2708    -7.0545   -12.9145 H       0      r0     0.0472
    222 H           -6.0809    -7.6806    -7.8773 H       0      r0     0.0480
    223 H           -6.7569    -9.3262    -5.8155 H       0      r0     0.0439
    224 H          -12.9936    -0.0648   -10.5147 H       0      r0     0.0983
    225 H          -11.7414    -2.4697   -10.6555 H       0      r0     0.1218
    226 H           -9.7009    -3.5211    -4.9296 H       0      r0     0.0540
    227 H           -7.9119    -1.8648    -5.0320 H       0      r0     0.0547
    228 H          -14.7968     1.0698   -11.9576 H       0      r0     0.0522
    229 H          -15.3726     0.2650   -13.5170 H       0      r0     0.0600
    230 H           -8.4816    -9.7182    -4.6466 H       0      r0     0.0633
    231 H          -10.2606    -9.2776    -5.1067 H       0      r0     0.0946
    232 C           -3.5701    -0.5016    -5.8112 C       6      r6     0.0583
    233 C           -3.1365    -1.7500    -5.1665 C       6      r6    -0.0314
    234 C           -1.8215    -1.7990    -5.0483 C       6      r6    -0.0225
    235 C           -1.3304    -0.4858    -5.6728 C       6      r6     0.1295
    236 C           -1.2591     0.3396    -8.2062 C       5      r5     0.1545
    237 O           -2.2202     1.3549    -8.3779 O       5      r5    -0.4787
    238 C           -3.4191     0.8051    -7.9787 C       5      r5     0.1601
    239 C           -3.2175    -0.5023    -7.2339 C       6      r6     0.0077
    240 C           -1.7197    -0.6891    -7.2038 C       6      r6     0.0333
    241 C           -4.6060     1.2355    -8.4206 C       0      r0     0.0327
    242 C           -5.0083    -0.1094    -5.3717 C       0      r0    -0.0104
    243 C            0.2458    -0.3419    -5.6577 C       0      r0    -0.0056
    244 C           -0.1157     0.0367    -8.8962 C       0      r0    -0.0062
    245 O           -2.1782     0.5642    -5.4273 O       5      r5    -0.4843
    246 C           -8.6633    -0.4544    -8.4268 C       0      r0     0.0191
    247 C           -7.4941    -1.1005    -7.9434 C       0      r0    -0.0027
    248 C           -6.1757    -0.4401    -8.0290 C       0      r0    -0.0394
    249 C           -5.9535     0.7658    -8.4059 C       0      r0     0.1179
    250 O           -6.9296     1.8904    -8.7064 O       0      r0    -0.4731
    251 O            0.4655    -2.2268    -7.7431 O       5      r5    -0.5002
    252 C            0.6518    -1.2116    -8.7300 C       5      r5     0.1210
    253 C            1.6625    -1.3258    -9.6136 C       5      r5    -0.0287
    254 C            2.3763    -2.4594    -9.2469 C       5      r5    -0.0176
    255 C            1.7975    -3.0790    -8.0592 C       5      r5     0.1040
    256 O           -6.2267    -0.0318    -3.1546 O       5      r5    -0.4715
    257 C           -5.5832    -0.0872    -1.7324 C       5      r5     0.1162
    258 C           -4.2029     0.2772    -1.8442 C       5      r5     0.0068
    259 C           -3.8900     0.4316    -3.1924 C       5      r5     0.0159
    260 C           -5.0434     0.2177    -3.8544 C       5      r5     0.1562
    261 C            0.8521    -0.1750    -4.2268 C       5      r5     0.1354
    262 C            0.0389    -0.0445    -3.1392 C       5      r5    -0.0198
    263 C            0.9143    -0.0808    -2.0123 C       5      r5    -0.0233
    264 C            2.2567    -0.2124    -2.4721 C       5      r5     0.0880
    265 O            2.1968    -0.3132    -4.1235 O       5      r5    -0.4569
    266 C           -6.1241    -0.3646    -0.5837 C       0      r0    -0.0310
    267 C            2.1880    -3.9777    -7.3428 C       0      r0    -0.0213
    268 H           -3.8371    -2.5570    -4.8887 H       0      r0     0.0524
    269 H           -1.2787    -2.6368    -4.6793 H       0      r0     0.0816
    270 H           -3.5900    -1.3500    -7.7699 H       0      r0     0.0343
    271 H           -1.4182    -1.7079    -7.4188 H       0      r0     0.0847
    272 H           -4.7790     2.2522    -8.9195 H       0      r0     0.1158
    273 H           -5.2996     0.7384    -5.9943 H       0      r0     0.1142
    274 H           -5.7546    -0.8435    -5.7365 H       0      r0     0.0361
    275 H            0.7338    -1.1941    -6.1352 H       0      r0     0.1243
    276 H            0.6542     0.4493    -6.2435 H       0      r0     0.0628
    277 H            0.3439     0.6604    -9.7127 H       0      r0     0.0454
    278 H           -6.4325    -2.6084    -7.2281 H       0      r0     0.0832
    279 H           -5.3317    -1.0633    -7.8839 H       0      r0     0.0231
    280 H            1.8137    -0.6303   -10.4248 H       0      r0     0.0461
    281 H            3.2925    -2.8424    -9.6896 H       0      r0     0.0953
    282 H           -3.5342     0.4308    -0.9989 H       0      r0     0.0794
    283 H           -2.8942     0.5602    -3.6081 H       0      r0     0.1127
    284 H           -1.0368     0.0563    -3.1917 H       0      r0     0.0653
    285 H            0.6102    -0.0236    -0.9808 H       0      r0     0.0844
    286 H           -5.4939    -0.4737     0.3130 H       0      r0     0.0481
    287 H           -7.1901    -0.6649    -0.5461 H       0      r0     0.0744
    288 H            3.0740    -4.5843    -7.5584 H       0      r0     0.0599
    289 H            1.7500    -4.3329    -6.4071 H       0      r0     0.0675
    290 C           -4.5889    -4.2372   -11.0362 C       6      r6     0.0081
    291 C           -5.8402    -4.4915   -11.6075 C       6      r6    -0.0050
    292 C           -6.1003    -3.4859   -12.4316 C       6      r6     0.0084
    293 C           -5.1497    -2.3183   -12.7276 C       6      r6     0.1251
    294 C           -3.3254    -1.0570   -11.3249 C       5      r5     0.1349
    295 O           -2.2399    -1.9842   -11.0748 O       5      r5    -0.4870
    296 C           -2.8718    -2.7879   -10.0989 C       5      r5     0.1295
    297 C           -4.2605    -2.9413   -10.3999 C       6      r6     0.0020
    298 C           -4.6745    -1.6933   -11.3330 C       6      r6    -0.0018
    299 C           -2.3112    -3.3817    -9.0276 C       0      r0    -0.0198
    300 C           -3.8813    -5.5251   -10.5324 C       0      r0    -0.0255
    301 C           -6.0774    -1.1978   -13.4113 C       0      r0    -0.0170
    302 C           -3.0641     0.2742   -11.4633 C       0      r0     0.0120
    303 O           -4.0679    -2.6065   -13.6092 O       0      r0    -0.5509
    304 C           -4.5651    -4.7604    -6.5569 C       5      r5     0.0996
    305 C           -3.2168    -4.9778    -6.0212 C       5      r5    -0.0167
    306 C           -2.3132    -4.4864    -6.9156 C       5      r5    -0.0272
    307 C           -3.0797    -4.0337    -7.9754 C       5      r5     0.0953
    308 O           -4.5125    -4.1970    -7.9416 O       5      r5    -0.4849
    309 O           -5.3272     1.1556   -11.8831 O       5      r5    -0.4775
    310 C           -3.9929     1.3024   -11.7608 C       5      r5     0.1372
    311 C           -3.4143     2.5990   -11.7793 C       5      r5    -0.0084
    312 C           -4.4010     3.5826   -11.7704 C       5      r5    -0.0295
    313 C           -5.5867     2.8269   -11.7355 C       5      r5     0.1064
    314 O           -3.5904    -5.9454   -13.1322 O       0      r0    -0.4625
    315 C           -3.4477    -9.4793   -13.1732 C       0      r0     0.1919
    316 C           -2.6942    -8.8024   -12.2819 C       0      r0     0.0015
    317 C           -3.1386    -7.5409   -11.4267 C       0      r0    -0.0120
    318 C           -3.5076    -6.4344   -11.7424 C       0      r0     0.1242
    319 C           -7.6217    -1.4473   -13.2940 C       6      r6     0.0666
    320 C           -8.4396    -0.8274   -12.2865 C       6      r6    -0.0107
    321 C           -9.8575    -0.9382   -13.8422 C       6      r6     0.0105
    322 C           -9.5949    -2.3135   -14.4249 C       6      r6     0.1412
    323 O           -8.3450    -2.7474   -14.2755 O       6      r6    -0.4810
    324 C          -10.6066    -3.0172   -15.0036 C       0      r0    -0.0200
    325 C           -5.6290    -5.1515    -5.9648 C       0      r0    -0.0399
    326 H           -6.4237    -5.3650   -11.4831 H       0      r0     0.0901
    327 H           -7.0089    -3.4571   -13.0549 H       0      r0     0.1356
    328 H           -4.8671    -2.9097    -9.4447 H       0      r0     0.1032
    329 H           -5.4826    -1.0026   -11.0686 H       0      r0     0.0801
    330 H           -1.2409    -3.2637    -8.9066 H       0      r0     0.0863
    331 H           -3.0208    -5.3136    -9.9441 H       0      r0     0.0559
    332 H           -4.4386    -6.1085    -9.7972 H       0      r0     0.0578
    333 H           -5.8385    -0.1973   -13.1353 H       0      r0     0.1049
    334 H           -5.7854    -1.3122   -14.4580 H       0      r0     0.0813
    335 H           -2.0082     0.5880   -11.3516 H       0      r0     0.0685
    336 H           -2.9388    -5.2462    -5.0062 H       0      r0     0.0927
    337 H           -1.2655    -4.4183    -6.7400 H       0      r0     0.0727
    338 H           -2.3753     2.8343   -11.8393 H       0      r0     0.0842
    339 H           -4.2343     4.6462   -11.6945 H       0      r0     0.0482
    340 H           -1.6802    -9.0988   -12.3407 H       0      r0     0.0747
    341 H           -3.1331    -7.9594   -10.3784 H       0      r0     0.0655
    342 H           -8.2288    -0.3821   -11.3550 H       0      r0     0.0754
    343 H          -10.4588     6.0665   -12.9330 H       0      r0     0.3102
    344 H          -11.6186    -2.5905   -14.9079 H       0      r0     0.0582
    345 H          -10.5586    -4.0440   -15.3809 H       0      r0     0.1264
    346 H           -5.6746    -5.6087    -5.0109 H       0      r0     0.0509
    347 H           -6.5397    -4.9702    -6.3598 H       0      r0     0.0762
    348 C           -9.6828     4.1059   -12.2728 C       6      r6     0.0673
    349 C           -8.4528     4.0187   -11.4679 C       6      r6    -0.0220
    350 C           -7.7139     5.1307   -11.5808 C       6      r6    -0.0214
    351 C           -8.4484     6.1695   -12.3117 C       6      r6     0.0578
    352 C           -9.2041     6.6231   -14.6648 C       5      r5     0.1397
    353 O          -10.4689     6.0917   -14.9728 O       5      r5    -0.5113
    354 C          -10.3526     4.7252   -14.6630 C       5      r5     0.1389
    355 C           -9.1863     4.3777   -13.7653 C       6      r6     0.0074
    356 C           -8.4184     5.7626   -13.7448 C       6      r6     0.0066
    357 C          -11.2624     3.7864   -15.0761 C       0      r0    -0.0037
    358 C          -10.5553     3.0027   -12.0608 C       0      r0     0.0005
    359 C           -7.8535     7.5838   -12.0402 C       0      r0    -0.0174
    360 C           -8.7196     7.8122   -15.1078 C       0      r0     0.0138
    361 O          -10.1676     5.7592   -12.0159 O       0      r0    -0.5695
    362 C          -10.3443     0.3380   -14.3713 C       5      r5     0.1156
    363 C          -11.6007     0.3192   -14.9994 C       5      r5    -0.0040
    364 C          -12.1413     1.5679   -15.3402 C       5      r5    -0.0190
    365 C          -11.1599     2.4321   -14.9139 C       5      r5     0.0935
    366 O           -9.9757     1.7664   -14.2897 O       5      r5    -0.5085
    367 O           -6.2903     7.6481   -14.4533 O       5      r5    -0.4915
    368 C           -7.3718     8.3325   -15.0212 C       5      r5     0.1489
    369 C           -7.1393     9.5897   -15.5091 C       5      r5     0.0090
    370 C           -5.7855     9.9968   -15.3119 C       5      r5    -0.0203
    371 C           -5.2651     8.8789   -14.6511 C       5      r5     0.1041
    372 O          -11.6972     1.7845   -10.3793 O       0      r0    -0.4739
    373 C          -12.0518     2.6862    -7.9165 C       0      r0     0.1760
    374 C          -11.2981     3.7662    -8.2686 C       0      r0    -0.0328
    375 C          -10.9242     3.8199    -9.6277 C       0      r0    -0.0109
    376 C          -11.1402     2.8059   -10.6059 C       0      r0     0.1687
    377 C           -8.9791     8.6581   -11.7427 C       5      r5     0.1549
    378 C           -9.9812     8.3006   -10.8914 C       5      r5     0.0222
    379 C          -10.8611     9.3916   -10.9172 C       5      r5    -0.0141
    380 C          -10.3173    10.4347   -11.7059 C       5      r5     0.1046
    381 O           -8.8865     9.9292   -12.2338 O       5      r5    -0.4634
    382 C          -10.8342    11.6673   -11.9005 C       0      r0    -0.0503
    383 C           -8.6394    -0.4013   -13.4645 C       6      r6     0.0184
    384 H           -8.2019     3.1869   -10.8560 H       0      r0     0.0725
    385 H           -6.8193     5.2965   -10.9904 H       0      r0     0.0783
    386 H           -8.6630     3.5151   -14.1045 H       0      r0     0.0897
    387 H           -7.4317     5.6327   -14.1317 H       0      r0     0.0814
    388 H          -12.0816     4.2545   -15.6766 H       0      r0     0.0761
    389 H          -11.4534     3.0372   -12.7217 H       0      r0     0.0739
    390 H          -10.1485     2.0007   -12.4409 H       0      r0     0.1227
    391 H           -7.2011     7.7544   -11.2057 H       0      r0     0.0818
    392 H           -7.1711     7.9420   -12.8742 H       0      r0     0.1233
    393 H           -9.3911     8.3705   -15.7780 H       0      r0     0.0650
    394 H          -12.2183    -0.5525   -15.1495 H       0      r0     0.0803
    395 H          -13.0166     1.8786   -15.8798 H       0      r0     0.1135
    396 H           -7.8859    10.1705   -16.0156 H       0      r0     0.0960
    397 H           -5.3752    10.9627   -15.5302 H       0      r0     0.0536
    398 H          -11.1199     4.5268    -7.5678 H       0      r0     0.0562
    399 H          -10.3197     4.7287    -9.8019 H       0      r0     0.0796
    400 H          -10.1217     7.3533   -10.4505 H       0      r0     0.1026
    401 H          -11.8063     9.3842   -10.3693 H       0      r0     0.0442
    402 H          -11.7814    11.9460   -11.5212 H       0      r0     0.0288
    403 H          -10.3542    12.4323   -12.4626 H       0      r0     0.0497
    404 H           -3.3306    -2.6351   -12.8751 H       0      r0     0.3118
    405 H           -9.5886    -3.7133    -9.8307 H       0      r0     0.3779
    406 C          -15.2762   -10.4241     3.0328 C       0      r0     0.2028
    407 C          -15.2548    -9.2315     2.1406 C       0      r0    -0.0023
    408 C          -15.4332    -8.0207     2.6153 C       0      r0    -0.0208
    409 C          -15.8677    -7.7200     3.9830 C       0      r0     0.1768
    410 C          -15.0819    -6.5162     4.5741 C       0      r0    -0.0263
    411 O          -16.5090    -8.3713     4.6999 O       0      r0    -0.4873
    412 O          -15.4416   -11.4918     2.5747 O       0      r0    -0.4726
    413 C          -13.5249    -6.6615     4.3823 C       5      r5     0.1212
    414 C          -12.9289    -5.4832     4.1163 C       5      r5    -0.0342
    415 C          -11.5564    -5.7872     3.9579 C       5      r5    -0.0277
    416 C          -11.3898    -7.2196     3.9258 C       5      r5     0.0779
    417 O          -12.8592    -7.8238     4.4171 O       5      r5    -0.4831
    418 C          -10.3743    -7.7792     3.5802 C       0      r0    -0.0433
    419 C          -14.8119   -10.3514     4.4875 C       0      r0     0.0617
    420 C          -10.9767   -12.2603     4.5559 C       0      r0     0.0159
    421 C          -11.2485   -11.2946     3.5438 C       0      r0    -0.0209
    422 C          -12.4523   -10.6889     3.5541 C       0      r0     0.0297
    423 C          -13.4509   -11.1040     4.5183 C       0      r0     0.2154
    424 O          -13.5262   -11.9279     5.3496 O       0      r0    -0.4596
    425 H          -15.0387    -9.2571     1.0925 H       0      r0     0.0569
    426 H          -15.3740    -7.2634     1.8942 H       0      r0     0.0371
    427 H          -15.4110    -5.5925     4.0290 H       0      r0     0.0323
    428 H          -15.3177    -6.5705     5.6485 H       0      r0     0.0634
    429 H          -13.4623    -4.5311     3.9308 H       0      r0     0.1059
    430 H          -10.7516    -4.9951     3.8240 H       0      r0     0.1070
    431 H           -9.5344    -7.1717     3.2586 H       0      r0     0.0643
    432 H          -10.2527    -8.8358     3.4642 H       0      r0     0.0530
    433 H          -14.7084    -9.3291     4.8037 H       0      r0     0.1162
    434 H          -15.4641   -10.7428     5.2293 H       0      r0     0.1113
    435 H          -10.4040   -11.1381     2.7884 H       0      r0     0.0564
    436 H          -12.6529    -9.9832     2.7273 H       0      r0     0.1300
    437 C           18.1632   -11.5362    11.2552 C       0      r0     0.2121
    438 C           17.0789   -11.8266    10.2346 C       0      r0     0.0147
    439 C           17.1260   -11.2521     9.0723 C       0      r0     0.0133
    440 C           18.3182   -10.5527     8.5605 C       0      r0     0.2152
    441 C           18.3232   -10.1322     7.0190 C       0      r0     0.0131
    442 O          -18.0266   -10.2405     9.1348 O       0      r0    -0.4700
    443 O          -18.5147   -12.3482    11.8067 O       0      r0    -0.4862
    444 C           17.8585   -11.2001     6.0362 C       5      r5     0.1387
    445 C           18.1708   -10.9784     4.7011 C       5      r5    -0.0134
    446 C           18.2683   -12.1777     3.9542 C       5      r5    -0.0300
    447 C           17.8882   -13.0911     4.9962 C       5      r5     0.0879
    448 O           17.6124   -12.4424     6.4754 O       5      r5    -0.4757
    449 C           17.9008   -14.2558     4.5270 C       0      r0    -0.0378
    450 C           18.4944   -10.1045    11.7122 C       0      r0     0.0414
    451 C           17.0946    -9.8242    15.9055 C       0      r0     0.1780
    452 C           18.0171   -10.8084    15.4655 C       0      r0    -0.0156
    453 C           18.4327   -10.7224    14.1139 C       0      r0     0.0060
    454 C           17.8956    -9.8772    13.1350 C       0      r0     0.1887
    455 O           17.0696    -9.0380    13.3089 O       0      r0    -0.5058
    456 H           16.2563   -12.3799    10.5705 H       0      r0     0.1042
    457 H           16.3329   -11.3970     8.3880 H       0      r0     0.0785
    458 H           17.6068    -9.2894     6.8930 H       0      r0     0.0654
    459 H          -18.0531    -9.6887     6.7673 H       0      r0     0.0923
    460 H           18.4324   -10.0319     4.2889 H       0      r0     0.0676
    461 H           18.4019   -12.2487     2.8883 H       0      r0     0.0499
    462 H           18.0973   -14.4093     3.4753 H       0      r0     0.0672
    463 H           17.7117   -15.1578     5.1518 H       0      r0     0.0685
    464 H          -17.7641    -9.7246    11.6961 H       0      r0     0.1276
    465 H           18.0986    -9.4300    10.9297 H       0      r0     0.0859
    466 H           18.5202   -11.3900    16.1493 H       0      r0     0.0805
    467 H          -18.1005   -11.4200    13.7452 H       0      r0     0.0916
    468 C           -9.2220    11.1904    13.7045 C       5      r5     0.1069
    469 O          -10.3989    11.1403    12.6018 O       5      r5    -0.4872
    470 C          -11.3222    10.5873    13.4794 C       5      r5     0.1200
    471 C          -10.8323    10.1255    14.7388 C       5      r5    -0.0267
    472 C           -9.4885    10.5220    14.9001 C       5      r5    -0.0120
    473 C           -8.0476    11.8840    13.4643 C       0      r0    -0.0017
    474 C          -13.7993     9.9511    13.8494 C       0      r0     0.1353
    475 O          -14.8609     9.1232    13.3831 O       0      r0    -0.4578
    476 C          -15.8417     9.8229    16.1030 C       0      r0     0.1913
    477 C          -14.5426    10.1429    16.2430 C       0      r0    -0.0224
    478 C          -13.6152    10.4205    15.0881 C       0      r0    -0.0236
    479 C          -12.6919    10.4548    13.0827 C       0      r0    -0.0031
    480 C           -6.9785    11.9082    14.3758 C       5      r5     0.1359
    481 C           -5.8119    12.5478    13.8737 C       5      r5    -0.0276
    482 C           -4.7448    12.5012    14.7368 C       5      r5    -0.0374
    483 C           -5.4004    11.7768    15.8366 C       5      r5     0.0903
    484 O           -6.9305    11.3862    15.6551 O       5      r5    -0.4905
    485 C           -4.5615    11.6301    16.7433 C       0      r0    -0.0582
    486 H          -11.3952     9.4499    15.4002 H       0      r0     0.0689
    487 H           -8.8571    10.4098    15.7907 H       0      r0     0.0882
    488 H           -7.8905    12.3791    12.5011 H       0      r0     0.0464
    489 H          -14.2126    10.1901    17.2421 H       0      r0     0.0399
    490 H          -12.8278    11.1717    15.2356 H       0      r0     0.0360
    491 H          -12.9134    10.4645    12.1042 H       0      r0     0.0832
    492 H           -5.8243    13.0671    12.9324 H       0      r0     0.0400
    493 H           -3.7544    12.8907    14.6901 H       0      r0     0.0734
    494 H           -3.5306    11.9273    16.7696 H       0      r0     0.0272
    495 H           -4.8162    11.1097    17.6607 H       0      r0     0.0528
    496 C           -9.4455     7.5351    18.1083 C       5      r5     0.1165
    497 O          -10.7261     7.9637    17.4867 O       5      r5    -0.4946
    498 C          -11.5724     7.4111    18.4938 C       5      r5     0.1011
    499 C          -10.8769     6.7122   -18.0437 C       5      r5    -0.0286
    500 C           -9.4769     6.8207   -18.2672 C       5      r5    -0.0033
    501 C           -8.2694     7.9405    17.4585 C       0      r0     0.0009
    502 C          -13.8812     7.1361   -18.1256 C       5      r5     0.1078
    503 O          -15.2856     6.9380   -18.5179 O       5      r5    -0.4838
    504 C          -15.8068     6.6159   -17.0778 C       5      r5     0.1329
    505 C          -14.7256     6.7367   -16.1370 C       5      r5     0.0135
    506 C          -13.5444     6.9977   -16.7556 C       5      r5    -0.0243
    507 C          -12.9526     7.4523    18.3809 C       0      r0    -0.0101
    508 C           -6.9454     7.7509    17.9847 C       5      r5     0.1375
    509 C           -5.8581     8.1955    17.2087 C       5      r5    -0.0256
    510 C           -4.6277     7.9816    17.8785 C       5      r5    -0.0430
    511 C           -5.1124     7.3814   -18.4766 C       5      r5     0.1141
    512 O           -6.6973     7.2564   -18.3216 O       5      r5    -0.4495
    513 C           -4.0990     7.1232   -17.7090 C       0      r0    -0.0333
    514 H          -11.3314     6.1776   -17.2519 H       0      r0     0.0666
    515 H           -8.6954     6.5069   -17.5845 H       0      r0     0.1062
    516 H           -8.4503     8.4664    16.4741 H       0      r0     0.0578
    517 H          -14.9116     6.6659   -15.0839 H       0      r0     0.1314
    518 H          -12.5553     7.2808   -16.2967 H       0      r0     0.0640
    519 H          -13.4786     7.8394    17.5259 H       0      r0     0.0771
    520 H           -6.1048     8.5443    16.1647 H       0      r0     0.0497
    521 H           -3.5724     8.2299    17.6028 H       0      r0     0.0239
    522 H           -3.0453     7.2399   -17.9874 H       0      r0     0.0321
    523 H           -4.2475     6.7353   -16.6787 H       0      r0     0.0844
    524 C            8.2781    -8.5861     6.3869 C       0      r0     0.1003
    525 O            9.8099    -8.5894     6.8589 O       0      r0    -0.4601
    526 C           10.1561    -8.8463     4.0337 C       0      r0     0.0205
    527 C            8.7795    -8.3341     3.9635 C       0      r0    -0.0216
    528 C            7.8534    -8.3613     5.0165 C       0      r0    -0.0284
    529 C            7.2344    -8.8591     7.1361 C       0      r0    -0.0314
    530 C           11.2726    -9.1990     4.1435 C       0      r0     0.0138
    531 H            8.3861    -7.9601     2.9828 H       0      r0     0.0885
    532 H            6.7987    -8.3132     4.9214 H       0      r0     0.0513
    533 H            6.4999    -9.0951     7.8797 H       0      r0     0.0702
    534 H           12.3050    -9.5136     4.2058 H       0      r0     0.1049
    535 C          -15.4558    -1.4711    12.0356 C       5      r5     0.1027
    536 O          -14.9269    -2.8606    12.7426 O       5      r5    -0.4821
    537 C          -16.1274    -3.0577    13.3640 C       5      r5     0.1702
    538 C          -17.2866    -2.1796    13.0183 C       5      r5    -0.0218
    539 C          -16.8651    -1.1614    12.2787 C       5      r5    -0.0206
    540 C          -14.6691    -0.6746    11.3746 C       0      r0    -0.0051
    541 C          -16.4087    -4.0620    14.2514 C       0      r0     0.1724
    542 H          -18.3069    -2.3611    13.3179 H       0      r0     0.0771
    543 H          -17.4478    -0.3381    11.9444 H       0      r0     0.0559
    544 H          -14.1555     0.0674    10.8451 H       0      r0     0.0822
    545 H          -17.4796    -4.1825    14.4570 H       0      r0     0.0933
    546 C           11.0454   -15.9417   -14.2451 C       5      r5     0.1141
    547 O           10.1275   -16.8887   -14.7950 O       5      r5    -0.4545
    548 C           10.7688   -18.1369   -14.0535 C       5      r5     0.0978
    549 C           11.8725   -17.6873   -13.2007 C       5      r5    -0.0157
    550 C           12.1263   -16.3650   -13.4155 C       5      r5    -0.0235
    551 C           10.8994   -14.5310   -14.4516 C       0      r0    -0.0021
    552 C           10.3821    18.5255   -14.1546 C       0      r0    -0.0314
    553 H           12.5062   -18.3368   -12.6063 H       0      r0     0.0845
    554 H           12.8999   -15.6909   -13.0340 H       0      r0     0.0537
    555 H           10.3050   -14.3081   -15.3396 H       0      r0     0.0893
    556 H           10.3329    17.4455   -14.0104 H       0      r0     0.0665
    557 C            2.2112   -18.2610    18.0000 C       6      r6    -0.0100
    558 C            1.2583   -18.8071   -18.6538 C       6      r6    -0.0205
    559 C            1.8728    18.9654   -17.5039 C       6      r6    -0.0067
    560 C            3.3134   -18.4748   -17.2586 C       6      r6     0.1404
    561 C            5.4964   -18.1046   -18.7541 C       5      r5     0.1710
    562 O            5.4025   -17.4722    17.5885 O       5      r5    -0.4760
    563 C            4.4168   -18.2511    16.8688 C       5      r5     0.1138
    564 C            3.4996   -18.9534    17.7518 C       6      r6    -0.0226
    565 C            4.2725   -18.9560   -18.4251 C       6      r6     0.0169
    566 C            4.3315   -18.3659    15.5354 C       0      r0     0.0012
    567 C            1.7440   -17.2224    16.9679 C       0      r0    -0.0158
    568 C            3.7371    18.6043   -16.0086 C       0      r0    -0.0217
    569 C            6.4815   -17.8472   -17.7715 C       0      r0     0.0233
    570 O            3.4741   -17.1013   -17.0240 O       0      r0    -0.5390
    571 C            2.4577    18.1949    12.7588 C       5      r5     0.2237
    572 C            1.5274    17.9157    13.9946 C       5      r5    -0.0033
    573 C            2.1659    18.2891    15.0955 C       5      r5    -0.0191
    574 C            3.4436    18.7753    14.6858 C       5      r5     0.1206
    575 O            3.8343    18.6474    13.3544 O       5      r5    -0.4707
    576 O            6.3784    17.8121   -16.8777 O       5      r5    -0.5155
    577 C            6.7741   -18.7407   -16.7538 C       5      r5     0.1128
    578 C            7.3405   -18.2859   -15.5662 C       5      r5    -0.0080
    579 C            7.6085    18.5949   -14.6668 C       5      r5    -0.0239
    580 C            7.0652    17.5374   -15.4364 C       5      r5     0.0939
    581 O           -0.2838   -15.6333    17.5385 O       0      r0    -0.4453
    582 C            0.1437   -14.2424    18.4215 C       0      r0     0.0893
    583 C            1.5531   -14.0010    18.5842 C       0      r0    -0.0302
    584 C            2.1697   -15.1479    17.9438 C       0      r0    -0.0086
    585 C            1.2136   -15.8767    17.5041 C       0      r0     0.1290
    586 C            3.2243   -18.6999   -14.6991 C       5      r5     0.1672
    587 C            2.4171    18.3156   -13.9897 C       5      r5    -0.0136
    588 C            2.0592    18.9465   -12.8595 C       5      r5    -0.0298
    589 C            2.7009   -17.6442   -12.7129 C       5      r5     0.0716
    590 O            3.4107   -17.4878   -14.2667 O       5      r5    -0.4721
    591 C           -0.5206   -13.3323   -18.6417 C       0      r0    -0.0504
    592 C            7.1110    16.4648   -14.8031 C       0      r0    -0.0127
    593 H            0.2216   -18.9357    18.6833 H       0      r0     0.0836
    594 H            1.3739    18.5607   -16.6879 H       0      r0     0.0619
    595 H            3.2528    17.9241    17.3402 H       0      r0     0.0344
    596 H            4.7091    18.0475   -18.0939 H       0      r0     0.0779
    597 H            4.9938   -17.8089    14.8957 H       0      r0     0.0895
    598 H            2.5448   -17.2029    16.2710 H       0      r0     0.0501
    599 H            0.8785   -17.6992    16.3275 H       0      r0     0.1522
    600 H            3.4917    17.5227   -16.2140 H       0      r0     0.0521
    601 H            4.8260    18.4082   -16.0763 H       0      r0     0.1068
    602 H            7.0158   -16.9212   -17.9296 H       0      r0     0.1069
    603 H            0.5292    17.5251    13.9687 H       0      r0     0.0561
    604 H            1.7839    18.2523    16.1190 H       0      r0     0.0638
    605 H            7.5219   -17.2460   -15.4275 H       0      r0     0.0905
    606 H            8.0848    18.6400   -13.7039 H       0      r0     0.0544
    607 H            2.0676   -13.1555   -18.5488 H       0      r0     0.0476
    608 H            3.2176   -15.3353    17.8787 H       0      r0     0.0772
    609 H            2.2316    17.2724   -14.3091 H       0      r0     0.1159
    610 H            1.5188    18.4757   -12.0647 H       0      r0     0.0345
    611 H           -0.1188   -12.4734   -18.0840 H       0      r0     0.0260
    612 H           -1.5879   -13.2969   -18.6678 H       0      r0     0.0555
    613 H            7.5750    16.3633   -13.7745 H       0      r0     0.1102
    614 H            6.7007    15.5507   -15.2059 H       0      r0     0.0642
    615 C           -1.4068   -18.1791    -9.2350 C       6      r6     0.0733
    616 C           -1.0219    18.3437    -9.1627 C       6      r6    -0.0473
    617 C           -1.3373    18.1201    -7.8993 C       6      r6    -0.0198
    618 C           -1.6497   -18.6065    -7.1500 C       6      r6     0.1255
    619 C           -0.1884   -16.4759    -6.4480 C       5      r5     0.1458
    620 O           -0.5606   -15.3979    -7.2253 O       5      r5    -0.4756
    621 C           -0.2422   -15.8872    -8.6182 C       5      r5     0.1150
    622 C           -0.1181   -17.4017    -8.7087 C       6      r6    -0.0114
    623 C           -0.2723   -17.7930    -7.1583 C       6      r6     0.0246
    624 C           -0.2104   -15.0749    -9.6297 C       0      r0    -0.0069
    625 C           -1.7187   -17.7735   -10.7091 C       0      r0    -0.0152
    626 C           -2.2697   -18.8796    -5.8275 C       0      r0     0.0092
    627 C            0.2782   -16.3333    -5.1771 C       0      r0     0.0033
    628 O           -2.4064   -17.8035    -7.9632 O       5      r5    -0.4842
    629 C            0.5837   -15.9419   -13.1301 C       5      r5     0.2648
    630 C            1.6860   -16.6236   -12.2307 C       5      r5     0.0080
    631 C            1.4201   -16.3309   -10.9291 C       5      r5    -0.0564
    632 C            0.2821   -15.5188   -10.9771 C       5      r5     0.1173
    633 O           -0.3808   -15.1634   -12.1011 O       5      r5    -0.4622
    634 O            0.5003   -18.7937    -4.6418 O       5      r5    -0.4894
    635 C            0.6958   -17.4780    -4.3849 C       5      r5     0.1278
    636 C            1.1455   -17.1362    -3.1270 C       5      r5    -0.0137
    637 C            1.5506   -18.2460    -2.3681 C       5      r5    -0.0148
    638 C            1.1504    18.6643    -3.2896 C       5      r5     0.1081
    639 O           -3.3772   -18.4463   -12.5038 O       5      r5    -0.4608
    640 C           -5.0411   -18.7547   -12.4292 C       5      r5     0.0810
    641 C           -5.2217   -18.8247   -10.9933 C       5      r5    -0.0252
    642 C           -4.0913   -18.3963   -10.2794 C       5      r5    -0.0109
    643 C           -3.1034   -18.2691   -11.2141 C       5      r5     0.1465
    644 C           -3.0115   -17.7007    -5.0709 C       0      r0     0.1844
    645 C           -3.1108   -16.4220    -5.6538 C       0      r0     0.0029
    646 C           -3.6423   -15.2763    -4.9731 C       0      r0    -0.0158
    647 C           -4.1132   -15.4005    -3.6753 C       0      r0     0.1556
    648 O           -3.4849   -18.0504    -4.0382 O       0      r0    -0.4813
    649 C           -5.7766   -18.8020   -13.3863 C       0      r0    -0.0305
    650 C            1.5099    17.5242    -2.7650 C       0      r0    -0.0433
    651 H           -0.7777    17.6170    -9.9307 H       0      r0     0.0479
    652 H           -1.1003    17.1376    -7.4417 H       0      r0     0.0534
    653 H            0.7665   -17.6956    -9.2337 H       0      r0     0.0230
    654 H            0.5065   -18.4985    -6.7364 H       0      r0     0.0772
    655 H           -0.4556   -14.0614    -9.4190 H       0      r0     0.0649
    656 H           -1.5297   -16.7143   -10.7857 H       0      r0     0.0943
    657 H           -0.9930   -18.0850   -11.4221 H       0      r0     0.0614
    658 H           -2.8760    18.1745    -5.9403 H       0      r0     0.0610
    659 H           -1.5077    18.6313    -5.1313 H       0      r0     0.1020
    660 H            0.3608   -15.3563    -4.6851 H       0      r0     0.0750
    661 H            3.5736   -17.5854   -12.0379 H       0      r0     0.0686
    662 H            2.0093   -16.6126   -10.0449 H       0      r0     0.0236
    663 H            1.1982   -16.1058    -2.7715 H       0      r0     0.1064
    664 H            2.0230   -18.3042    -1.3677 H       0      r0     0.0866
    665 H           -6.1740   -18.9422   -10.4777 H       0      r0     0.0553
    666 H           -3.9467   -18.3450    -9.2097 H       0      r0     0.1002
    667 H           -2.8462   -16.3044    -6.6670 H       0      r0     0.1243
    668 H           -3.6502   -14.3340    -5.5510 H       0      r0     0.0607
    669 H           -6.8834   -18.9141   -13.1281 H       0      r0     0.0413
    670 H           -5.3986   -18.7655   -14.4126 H       0      r0     0.0992
    671 H            2.1010    17.3824    -1.9233 H       0      r0     0.0403
    672 H            1.4028    16.6320    -3.3271 H       0      r0     0.0607
    673 C            7.0927   -16.9808   -10.5138 C       6      r6     0.1135
    674 C            8.2395   -16.8420   -11.4936 C       6      r6    -0.0276
    675 C            8.2283   -16.1017   -12.6010 C       6      r6    -0.0529
    676 C            7.4308   -14.8651   -12.6786 C       6      r6    -0.0241
    677 C            7.1633   -13.4018   -11.1369 C       5      r5     0.1489
    678 O            7.8114   -13.6619    -9.9732 O       5      r5    -0.4875
    679 C            6.9739   -14.6849    -9.3951 C       5      r5     0.1456
    680 C            6.2990   -15.5562   -10.4004 C       6      r6    -0.0081
    681 C            6.4558   -14.5093   -11.7069 C       6      r6    -0.0043
    682 C            6.6740   -14.7097    -8.0790 C       0      r0     0.0049
    683 C            6.0004   -17.9237   -11.0604 C       0      r0    -0.0103
    684 C            7.7319   -14.1060   -14.0017 C       0      r0    -0.0315
    685 C            6.8408   -12.0644   -11.5293 C       0      r0    -0.0061
    686 O            7.5334   -17.4035    -9.2245 O       0      r0    -0.5897
    687 C            4.5662   -17.3204    -6.5745 C       5      r5     0.0876
    688 C            4.7284   -16.4905    -5.4609 C       5      r5    -0.0317
    689 C            5.4945   -15.4479    -6.0704 C       5      r5    -0.0199
    690 C            5.8370   -15.6286    -7.4061 C       5      r5     0.1215
    691 O            5.3318   -16.8043    -7.9855 O       5      r5    -0.5146
    692 O            5.2147   -12.6943   -13.3454 O       5      r5    -0.4825
    693 C            6.0056   -11.7291   -12.6063 C       5      r5     0.0935
    694 C            6.1026   -10.3877   -13.0823 C       5      r5    -0.0467
    695 C            5.3243   -10.3472   -14.1814 C       5      r5    -0.0238
    696 C            4.7971   -11.7371   -14.5230 C       5      r5     0.2105
    697 O            5.7537    17.9285   -11.9851 O       0      r0    -0.5291
    698 C            7.9521    15.8792   -11.8373 C       0      r0     0.2274
    699 C            8.4005    17.0354   -10.9101 C       0      r0    -0.0037
    700 C            7.6901    18.1884   -10.5816 C       0      r0    -0.0130
    701 C            6.4701    18.5868   -11.2454 C       0      r0     0.1696
    702 C            6.9917   -14.6597   -15.2665 C       6      r6     0.0913
    703 C            5.6427   -15.2450   -15.1874 C       6      r6     0.0093
    704 C            5.4899   -14.0936   -16.9189 C       6      r6     0.0316
    705 C            6.7109   -14.6089   -17.7004 C       6      r6     0.1369
    706 O            7.7463   -14.8056   -16.8130 O       6      r6    -0.4605
    707 C            6.6864   -14.7988    18.6363 C       0      r0    -0.0056
    708 C            3.9045   -18.3396    -6.3057 C       0      r0    -0.0382
    709 H            8.8965   -17.6547   -11.3823 H       0      r0     0.0590
    710 H            8.8676   -16.2913   -13.4508 H       0      r0     0.1070
    711 H            5.2331   -15.8410   -10.1812 H       0      r0     0.0498
    712 H            5.4264   -14.3613   -12.0395 H       0      r0     0.0881
    713 H            7.1504   -13.8242    -7.5754 H       0      r0     0.0646
    714 H            5.0240   -17.7692   -10.6461 H       0      r0     0.0501
    715 H            5.8496   -17.6052   -12.0961 H       0      r0     0.0614
    716 H            7.5201   -13.0186   -14.0115 H       0      r0     0.0711
    717 H            8.8296   -14.1090   -14.0523 H       0      r0     0.0518
    718 H            7.2590   -11.2143   -11.0702 H       0      r0     0.0568
    719 H            4.4202   -16.5378    -4.4213 H       0      r0     0.0487
    720 H            5.7791   -14.5485    -5.5306 H       0      r0     0.0644
    721 H            6.7169    -9.5384   -12.6786 H       0      r0     0.0496
    722 H            5.0309    -9.4135   -14.6954 H       0      r0     0.0433
    723 H            9.3770    16.8895   -10.5544 H       0      r0     0.1229
    724 H            8.0614    18.9485    -9.9013 H       0      r0     0.1283
    725 H            4.9755   -15.7008   -14.4633 H       0      r0     0.1012
    726 H           -0.7910   -10.6898   -13.9448 H       0      r0     0.3106
    727 H            5.8399   -14.4651    18.0633 H       0      r0     0.0480
    728 H            7.4557   -15.1713    18.0101 H       0      r0     0.1079
    729 H            3.4832   -18.5205    -5.3517 H       0      r0     0.0600
    730 H            3.7461    18.8495    -7.0522 H       0      r0     0.0507
    731 C            1.3859   -12.4574   -14.1333 C       6      r6     0.0114
    732 C            1.6672   -13.1131   -12.9109 C       6      r6    -0.0061
    733 C            1.0365   -12.4154   -11.9819 C       6      r6    -0.0241
    734 C            0.2598   -11.1539   -12.3044 C       6      r6     0.1213
    735 C            0.5978    -9.0438   -13.7747 C       5      r5     0.1250
    736 O            0.2835    -9.3839   -15.1796 O       5      r5    -0.5197
    737 C            1.2237   -10.3683   -15.4188 C       5      r5     0.1236
    738 C            1.7624   -11.0216   -14.2405 C       6      r6    -0.0052
    739 C            1.2390   -10.1670   -12.9848 C       6      r6    -0.0014
    740 C            1.8410   -10.5180   -16.6453 C       0      r0    -0.0192
    741 C            1.1795   -13.3479   -15.3713 C       0      r0     0.0086
    742 C           -0.0889   -10.5927   -10.8402 C       0      r0     0.0065
    743 C            0.3473    -7.8641   -13.2527 C       0      r0     0.0162
    744 O           -0.8843   -11.2315   -13.1247 O       0      r0    -0.5776
    745 C            4.6349   -12.9874   -16.9804 C       5      r5     0.1215
    746 C            4.3798   -12.3795   -18.2280 C       5      r5    -0.0280
    747 C            3.3455   -11.3963   -18.1757 C       5      r5    -0.0431
    748 C            2.9636   -11.3619   -16.9022 C       5      r5     0.0784
    749 O            3.6724   -12.3595   -15.9055 O       5      r5    -0.4735
    750 O            1.4459    -8.3124   -11.1566 O       0      r0    -0.4966
    751 C            0.7309    -7.5823   -11.8540 C       0      r0     0.1603
    752 C            0.0514    -6.4724   -11.2603 C       0      r0    -0.0031
    753 C            0.0624    -6.1630    -9.9248 C       0      r0    -0.0256
    754 C            0.7934    -6.8630    -8.9411 C       0      r0     0.0276
    755 O            0.5226   -15.4794   -14.7619 O       0      r0    -0.4394
    756 C           -2.3464   -15.9310   -15.1778 C       0      r0     0.0288
    757 C           -2.4044   -14.5473   -15.0072 C       0      r0    -0.0170
    758 C           -1.1725   -13.7802   -15.1670 C       0      r0     0.0046
    759 C            0.0742   -14.3024   -15.0542 C       0      r0     0.1853
    760 C           -1.3858   -11.2251   -10.2459 C       5      r5     0.1598
    761 C           -1.7847   -12.4639   -10.7545 C       5      r5     0.0070
    762 C           -2.8935   -12.7956   -10.0089 C       5      r5    -0.0246
    763 C           -3.1831   -11.7103    -9.0713 C       5      r5     0.0922
    764 O           -2.0326   -10.5554    -9.2938 O       5      r5    -0.4531
    765 C           -4.1619   -11.6371    -8.2935 C       0      r0    -0.0355
    766 C            5.7332   -14.0291   -15.5896 C       6      r6     0.0666
    767 H            2.1763   -14.0277   -12.7521 H       0      r0     0.0866
    768 H            1.0579   -12.7134   -10.9686 H       0      r0     0.0414
    769 H            2.8628   -10.9358   -14.2070 H       0      r0     0.0719
    770 H            1.9901    -9.6367   -12.2852 H       0      r0     0.1019
    771 H            1.5530    -9.9012   -17.4951 H       0      r0     0.1169
    772 H            1.0136   -12.6535   -16.1782 H       0      r0     0.0404
    773 H            2.0853   -13.8243   -15.8082 H       0      r0     0.1335
    774 H            0.7659   -10.6256   -10.1830 H       0      r0     0.0799
    775 H           -0.1205    -9.4580   -10.8517 H       0      r0     0.1186
    776 H           -0.1363    -7.1381   -13.8703 H       0      r0     0.0965
    777 H            4.9011   -12.6751    18.4359 H       0      r0     0.0387
    778 H            2.9615   -10.8195    18.5606 H       0      r0     0.0533
    779 H           -0.5153    -5.8500   -11.9446 H       0      r0     0.0931
    780 H           -0.6296    -5.3978    -9.5146 H       0      r0     0.0479
    781 H           -3.2813   -14.0047   -14.7643 H       0      r0     0.0580
    782 H           -1.1427   -12.7133   -15.3600 H       0      r0     0.0538
    783 H           -1.3065   -13.0506   -11.5401 H       0      r0     0.1218
    784 H           -3.4560   -13.6955   -10.1297 H       0      r0     0.0522
    785 H           -4.9286   -12.3842    -8.2580 H       0      r0     0.0402
    786 H           -4.2318   -10.8238    -7.6310 H       0      r0     0.0735
    787 H            6.6704   -17.2172    -8.6686 H       0      r0     0.3529
    788 H            3.8418   -16.9762   -16.1177 H       0      r0     0.3348
    789 C           -3.6640    -4.7161    -1.2372 C       0      r0     0.1825
    790 C           -3.5706    -4.6838     0.2523 C       0      r0    -0.0212
    791 C           -2.8871    -3.7513     0.9386 C       0      r0    -0.0254
    792 C           -2.3464    -2.4978     0.3279 C       0      r0     0.1787
    793 C           -1.3266    -1.6745     1.2662 C       0      r0    -0.0008
    794 O           -2.7057    -2.0017    -0.6579 O       0      r0    -0.4768
    795 O           -4.5809    -5.1124    -1.8242 O       0      r0    -0.4746
    796 C           -0.2824    -2.6841     1.8570 C       5      r5     0.1389
    797 C           -0.4577    -2.9313     3.2372 C       5      r5    -0.0189
    798 C            0.5984    -3.7116     3.5609 C       5      r5    -0.0182
    799 C            1.4739    -3.8359     2.3562 C       5      r5     0.0903
    800 O            0.7422    -3.0848     1.1094 O       5      r5    -0.4828
    801 C            2.5082    -4.4626     2.2930 C       0      r0    -0.0140
    802 C           -2.3226    -4.3283    -2.0173 C       0      r0     0.0091
    803 C           -1.1485    -7.4895    -4.8143 C       0      r0     0.1523
    804 C           -1.9967    -7.6827    -3.7732 C       0      r0    -0.0183
    805 C           -2.3327    -6.5607    -2.8122 C       0      r0    -0.0211
    806 C           -1.8894    -5.3414    -2.9824 C       0      r0     0.1323
    807 O           -0.9796    -4.9426    -3.9109 O       0      r0    -0.5142
    808 H           -4.0967    -5.4747     0.7539 H       0      r0     0.0493
    809 H           -2.6538    -3.8330     1.9663 H       0      r0     0.0597
    810 H           -0.7329    -0.9404     0.6488 H       0      r0     0.1059
    811 H           -1.8940    -1.1685     2.0051 H       0      r0     0.0629
    812 H           -1.1791    -2.5917     3.8909 H       0      r0     0.0968
    813 H            0.7114    -4.2125     4.4829 H       0      r0     0.0844
    814 H            3.0177    -5.1282     3.0097 H       0      r0     0.0789
    815 H            3.0918    -4.3656     1.3531 H       0      r0     0.0947
    816 H           -2.3139    -3.2951    -2.4416 H       0      r0     0.1090
    817 H           -1.5195    -4.1968    -1.2706 H       0      r0     0.0516
    818 H           -2.3324    -8.6663    -3.7396 H       0      r0     0.0959
    819 H           -2.8499    -6.7178    -1.9274 H       0      r0     0.0607
    820 C            5.1343    -5.8944     5.0931 C       0      r0     0.1799
    821 C            5.8696    -5.3981     3.9151 C       0      r0    -0.0083
    822 C            5.6264    -5.6977     2.6365 C       0      r0     0.0011
    823 C            4.5681    -6.5671     2.1405 C       0      r0     0.1854
    824 C            4.0177    -7.8735     2.9387 C       0      r0     0.0368
    825 O            4.2486    -6.5636     1.0212 O       0      r0    -0.4731
    826 O            4.1363    -6.4982     5.1308 O       0      r0    -0.4955
    827 C            4.3866    -9.2013     2.2482 C       5      r5     0.1569
    828 C            5.1334    -9.1500     1.0774 C       5      r5     0.0081
    829 C            5.3573   -10.4660     0.7198 C       5      r5    -0.0250
    830 C            4.6900   -11.3159     1.7134 C       5      r5     0.0885
    831 O            4.0634   -10.3794     2.8410 O       5      r5    -0.4675
    832 C            4.7067   -12.5947     1.5977 C       0      r0    -0.0408
    833 C            5.7968    -5.5313     6.4562 C       0      r0     0.0073
    834 C            8.7793    -2.0675     5.9656 C       0      r0     0.1796
    835 C            9.0934    -3.3586     6.4249 C       0      r0     0.0148
    836 C            8.1044    -4.4277     6.5677 C       0      r0     0.0026
    837 C            6.7580    -4.3138     6.3218 C       0      r0     0.1799
    838 O            6.1480    -3.2953     5.9846 O       0      r0    -0.5137
    839 H            6.7738    -4.8844     4.1449 H       0      r0     0.0981
    840 H            6.3653    -5.3463     1.8475 H       0      r0     0.1113
    841 H            4.4330    -8.0632     3.9706 H       0      r0     0.1105
    842 H            2.9799    -7.8225     3.2948 H       0      r0     0.1012
    843 H            5.5054    -8.2868     0.5401 H       0      r0     0.1101
    844 H            5.8889   -10.9494    -0.0868 H       0      r0     0.0497
    845 H            5.2692   -12.9422     0.7909 H       0      r0     0.0550
    846 H            4.1676   -13.2805     2.2773 H       0      r0     0.0694
    847 H            5.1006    -5.3175     7.2646 H       0      r0     0.0826
    848 H            6.2396    -6.3551     6.9788 H       0      r0     0.0371
    849 H           10.1355    -3.7647     6.6486 H       0      r0     0.0604
    850 H            8.4236    -5.4353     6.8448 H       0      r0     0.0429
    851 C            6.1271    -2.2580     0.8965 C       5      r5     0.1360
    852 O            5.3105    -1.4370     0.0937 O       5      r5    -0.4810
    853 C            4.2136    -1.2474     1.1964 C       5      r5     0.0894
    854 C            4.3727    -1.9635     2.3667 C       5      r5    -0.0210
    855 C            5.6777    -2.5062     2.2069 C       5      r5     0.0010
    856 C            7.3313    -2.8982     0.4498 C       0      r0     0.0053
    857 C            1.9889    -0.1738     1.6857 C       5      r5     0.1403
    858 O            1.0099     0.7334     1.2473 O       5      r5    -0.4833
    859 C            0.1217     0.6727     2.5205 C       5      r5     0.1155
    860 C            0.6875    -0.0651     3.5883 C       5      r5    -0.0231
    861 C            1.7916    -0.6452     3.0317 C       5      r5    -0.0241
    862 C            3.1104    -0.4614     0.8912 C       0      r0     0.0079
    863 C            8.2081    -3.6735     1.1984 C       5      r5     0.1485
    864 C            9.4325    -3.9199     0.5044 C       5      r5    -0.0131
    865 C           10.3274    -4.6823     1.2783 C       5      r5    -0.0082
    866 C            9.5131    -4.8405     2.4393 C       5      r5     0.1168
    867 O            8.0456    -4.0816     2.4793 O       5      r5    -0.4824
    868 C           10.1101    -5.4915     3.3238 C       0      r0    -0.0304
    869 H            3.7122    -2.0938     3.2129 H       0      r0     0.0599
    870 H            6.2043    -3.0307     2.9137 H       0      r0     0.1070
    871 H            7.7723    -2.8640    -0.5642 H       0      r0     0.0526
    872 H            0.2792    -0.3097     4.5598 H       0      r0     0.0659
    873 H            2.5024    -1.3046     3.5273 H       0      r0     0.0375
    874 H            3.3036    -0.0050    -0.1098 H       0      r0     0.0809
    875 H            9.7044    -3.5767    -0.4936 H       0      r0     0.0471
    876 H           11.3652    -4.9216     1.1151 H       0      r0     0.0650
    877 H           11.0933    -5.8719     3.1676 H       0      r0     0.0621
    878 H            9.7249    -5.7825     4.2987 H       0      r0     0.0481
    879 C           13.3342    -1.9355     4.9042 C       5      r5     0.1534
    880 O           13.3486    -1.7340     6.3179 O       5      r5    -0.4545
    881 C           12.9712    -3.1155     6.7204 C       5      r5     0.1206
    882 C           12.8489    -4.0379     5.6995 C       5      r5    -0.0367
    883 C           13.1044    -3.2888     4.5426 C       5      r5     0.0034
    884 C           13.4550    -0.9020     3.9900 C       0      r0     0.0170
    885 C           12.3324    -4.6008     8.7247 C       0      r0     0.1000
    886 O           12.3291    -4.7538    10.3349 O       0      r0    -0.4581
    887 C           10.5793    -7.6911     7.4698 C       0      r0     0.1394
    888 C           11.3248    -6.8819     8.3707 C       0      r0    -0.0343
    889 C           11.7790    -5.5503     7.9226 C       0      r0    -0.0378
    890 C           12.7958    -3.4471     8.1024 C       0      r0     0.0086
    891 C           13.3670    -1.1242     2.5817 C       5      r5     0.1416
    892 C           13.4890     0.0233     1.7439 C       5      r5    -0.0257
    893 C           13.2911    -0.2866     0.3898 C       5      r5    -0.0465
    894 C           13.0620    -1.6957     0.5204 C       5      r5     0.0883
    895 O           13.1814    -2.3115     1.9922 O       5      r5    -0.4753
    896 C           12.8962    -2.1509    -0.6809 C       0      r0    -0.0545
    897 H           12.6763    -5.1096     5.7120 H       0      r0     0.0290
    898 H           13.0745    -3.7311     3.5679 H       0      r0     0.0964
    899 H           13.5708     0.0906     4.4131 H       0      r0     0.0692
    900 H           11.6945    -7.1513     9.3529 H       0      r0     0.0720
    901 H           11.5293    -5.3452     6.8778 H       0      r0     0.0316
    902 H           13.2347    -2.9185     8.8850 H       0      r0     0.0918
    903 H           13.7338     1.0168     2.0628 H       0      r0     0.0428
    904 H           13.3827     0.3040    -0.4858 H       0      r0     0.0377
    905 H           12.6947    -1.4817    -1.4645 H       0      r0     0.0567
    906 H           12.7267    -3.1691    -0.9164 H       0      r0     0.0469
    907 C           -6.0880     2.4520     2.5984 C       5      r5     0.1434
    908 O           -5.8369     2.8816     3.9611 O       5      r5    -0.4799
    909 C           -4.9872     3.9787     3.5979 C       5      r5     0.1535
    910 C           -4.6248     4.0793     2.1663 C       5      r5    -0.0578
    911 C           -5.4116     3.1129     1.5013 C       5      r5    -0.0574
    912 C           -6.7807     1.5011     2.0758 C       0      r0     0.1496
    913 C           -4.2990     4.9336     4.1625 C       0      r0     0.1503
    914 H           -3.9973     4.8462     1.7426 H       0      r0     0.0253
    915 H           -5.4844     2.8905     0.4759 H       0      r0     0.0427
    916 H           -6.8242     1.3963     0.9710 H       0      r0     0.0710
    917 H           -3.5966     5.6324     3.6035 H       0      r0     0.0705
    918 C           -6.6835    -8.1204    -2.2798 C       5      r5     0.1159
    919 O           -8.2417    -8.1371    -2.3066 O       5      r5    -0.4487
    920 C           -8.4145    -7.9063    -0.9403 C       5      r5     0.1361
    921 C           -7.3258    -7.6432    -0.0866 C       5      r5    -0.0381
    922 C           -6.2581    -7.8148    -0.9407 C       5      r5    -0.0153
    923 C           -5.8032    -8.3661    -3.1976 C       0      r0    -0.0166
    924 C           -9.7514    -7.7813    -0.3571 C       0      r0    -0.0039
    925 H           -7.3327    -7.4668     0.9631 H       0      r0     0.0404
    926 H           -5.2206    -7.7460    -0.5309 H       0      r0     0.0555
    927 H           -5.0585    -8.5824    -3.8653 H       0      r0     0.0590
    928 H           -9.9144    -7.4996     0.6245 H       0      r0     0.0536
    929 C           -6.1298   -15.0906    -1.9164 C       0      r0     0.0934
    930 O           -4.7624   -14.3839    -2.6233 O       0      r0    -0.4296
    931 C           -5.8447   -13.3797    -3.4873 C       0      r0     0.0974
    932 C           -7.2808   -13.5179    -3.2188 C       0      r0    -0.0294
    933 C           -7.4447   -14.5519    -2.2554 C       0      r0    -0.0382
    934 C           -6.0240   -16.0865    -1.0879 C       0      r0     0.0023
    935 C           -5.4588   -12.4880    -4.4174 C       0      r0    -0.0129
    936 H           -8.0891   -12.9634    -3.6955 H       0      r0     0.0704
    937 H           -8.4029   -14.8843    -1.8602 H       0      r0     0.0451
    938 H           -6.1028   -16.8821    -0.4028 H       0      r0     0.1123
    939 H           -5.5919   -11.7668    -5.2298 H       0      r0     0.0491
    940 C           -1.7488    -6.7381     4.0158 C       5      r5     0.1469
    941 O           -0.5592    -6.2975     4.6182 O       5      r5    -0.4581
    942 C           -0.9706    -6.5171     6.0787 C       5      r5     0.1141
    943 C           -2.3371    -7.0743     6.0930 C       5      r5    -0.0176
    944 C           -2.7943    -7.2237     4.8165 C       5      r5    -0.0095
    945 C           -2.0241    -6.7379     2.5694 C       0      r0    -0.0175
    946 C           -0.3867    -6.2496     7.1988 C       0      r0    -0.0206
    947 H           -2.9669    -7.3710     6.9241 H       0      r0     0.0673
    948 H           -3.7866    -7.6187     4.4824 H       0      r0     0.1137
    949 H           -3.0886    -6.9595     2.2767 H       0      r0     0.0363
    950 H           -0.0162    -6.0977     8.1496 H       0      r0     0.0518
    951 C           17.1028     9.0390    -7.9277 C       5      r5     0.1560
    952 O           17.3272     9.7615    -9.1192 O       5      r5    -0.4917
    953 C           18.1164    10.8690    -8.3950 C       5      r5     0.1064
    954 C           18.5173    10.6930    -7.0509 C       5      r5    -0.0284
    955 C           17.7570     9.5392    -6.7051 C       5      r5    -0.0318
    956 C           16.5277     7.9692    -7.5634 C       0      r0     0.1382
    957 C           18.6296    12.0689    -8.7355 C       0      r0    -0.0362
    958 H          -18.2288    11.3123    -6.3822 H       0      r0     0.0623
    959 H           17.8417     8.9894    -5.7114 H       0      r0     0.0506
    960 H           16.7025     7.4879    -6.6011 H       0      r0     0.0678
    961 H          -18.3706    12.9145    -9.3450 H       0      r0     0.0544
    962 C           13.9411    18.8596    -8.0068 C       6      r6     0.0037
    963 C           14.3456   -18.5724    -6.7724 C       6      r6    -0.0397
    964 C           15.6997   -18.5606    -6.8025 C       6      r6    -0.0412
    965 C           16.4485   -18.9382    -8.1012 C       6      r6     0.1250
    966 C           16.3955    16.9533    -9.7373 C       5      r5     0.1461
    967 O           15.3852    17.2249   -10.6826 O       5      r5    -0.4987
    968 C           14.1986    17.2123    -9.9141 C       5      r5     0.1383
    969 C           14.4426    17.5598    -8.5050 C       6      r6     0.0021
    970 C           15.9982    17.5011    -8.3754 C       6      r6     0.0099
    971 C           12.9485    16.8571   -10.2840 C       0      r0     0.0232
    972 C           12.7682   -18.3565    -8.7619 C       0      r0    -0.0230
    973 C           17.9597    18.9521    -7.5608 C       0      r0    -0.0080
    974 C           17.6137    16.4056    -9.9631 C       0      r0    -0.0036
    975 O           16.2906   -18.1962    -9.2702 O       0      r0    -0.5752
    976 C           11.9299    15.6103   -14.5979 C       0      r0     0.1093
    977 C           12.8321    16.4878   -14.1220 C       0      r0    -0.0558
    978 C           13.2952    16.7546   -12.6976 C       0      r0    -0.0234
    979 C           12.4980    16.5789   -11.6615 C       0      r0     0.1336
    980 O           11.1208    16.1684   -11.7002 O       0      r0    -0.5694
    981 O           18.3210    15.9704    -7.5898 O       5      r5    -0.4846
    982 C           18.4977    15.9410    -8.9244 C       5      r5     0.1308
    983 C          -17.6779    15.1742    -9.3670 C       5      r5    -0.0217
    984 C          -17.0235    14.4548    -8.3639 C       5      r5    -0.0308
    985 C          -17.7664    14.9053    -7.2428 C       5      r5     0.0877
    986 O           13.8719   -17.4555   -10.8162 O       5      r5    -0.4675
    987 C           14.5812   -16.0369   -10.9689 C       5      r5     0.1050
    988 C           14.3415   -15.2448    -9.7092 C       5      r5    -0.0133
    989 C           13.6386   -16.0188    -8.8857 C       5      r5    -0.0186
    990 C           13.4947   -17.2398    -9.5524 C       5      r5     0.1579
    991 C           18.4265   -17.6089    -7.1327 C       5      r5     0.1522
    992 C           17.6371   -16.5047    -7.5101 C       5      r5    -0.0082
    993 C           18.3117   -15.4001    -7.1347 C       5      r5    -0.0358
    994 C          -17.6650   -15.7229    -6.5281 C       5      r5     0.0601
    995 O          -17.7389   -17.4969    -6.4688 O       5      r5    -0.4952
    996 C           15.1480   -15.6097   -11.9503 C       0      r0    -0.0163
    997 C          -17.3596    14.3678    -6.2157 C       0      r0    -0.0381
    998 H           13.6735   -17.9936    -6.0553 H       0      r0     0.0460
    999 H           16.2956   -18.1463    -6.0115 H       0      r0     0.0346
   1000 H           13.8844    16.7220    -7.9392 H       0      r0     0.0969
   1001 H           16.3244    16.7774    -7.5729 H       0      r0     0.0822
   1002 H           12.1861    16.9764    -9.5626 H       0      r0     0.0918
   1003 H           12.2235   -18.9270    -9.4995 H       0      r0     0.0712
   1004 H           12.0809   -17.8459    -8.0318 H       0      r0     0.0490
   1005 H           17.8732    18.1405    -6.8101 H       0      r0     0.0693
   1006 H           18.5767    18.4560    -8.2303 H       0      r0     0.0715
   1007 H           17.8280    16.2048   -11.0008 H       0      r0     0.0577
   1008 H           13.1440    17.1007   -15.0110 H       0      r0     0.0342
   1009 H           14.2651    17.1618   -12.5531 H       0      r0     0.0973
   1010 H          -17.3879    15.1898   -10.3717 H       0      r0     0.0396
   1011 H          -16.1149    13.8366    -8.3584 H       0      r0     0.0519
   1012 H           14.4854   -14.1570    -9.4651 H       0      r0     0.1023
   1013 H           13.1697   -15.6988    -7.9726 H       0      r0     0.0902
   1014 H           16.6788   -16.4449    -8.0224 H       0      r0     0.0899
   1015 H           17.8129   -14.4154    -7.0598 H       0      r0     0.0547
   1016 H           15.5216   -14.5933   -11.9257 H       0      r0     0.1033
   1017 H           15.4618   -16.1031   -12.8608 H       0      r0     0.0803
   1018 H          -16.5721    13.6252    -6.0832 H       0      r0     0.0629
   1019 H          -17.8335    14.6150    -5.2284 H       0      r0     0.0530
   1020 C          -15.9340   -12.2830    -2.9982 C       6      r6     0.0832
   1021 C          -16.4209   -13.1433    -1.8575 C       6      r6    -0.0224
   1022 C          -15.6202   -12.9651    -0.8246 C       6      r6    -0.0386
   1023 C          -14.5485   -11.9688    -1.1902 C       6      r6     0.0989
   1024 C          -12.5756   -12.1132    -2.8108 C       5      r5     0.1609
   1025 O          -12.9069   -11.4390    -3.9926 O       5      r5    -0.4698
   1026 C          -13.9399   -12.1909    -4.5609 C       5      r5     0.1367
   1027 C          -14.6993   -12.9250    -3.5098 C       6      r6     0.0125
   1028 C          -13.7403   -12.8338    -2.1890 C       6      r6     0.0329
   1029 C          -13.9569   -12.4097    -5.8866 C       0      r0     0.0085
   1030 C          -16.9281   -12.0363    -4.1019 C       0      r0    -0.0453
   1031 C          -13.7900   -11.5795     0.1147 C       0      r0     0.0063
   1032 C          -11.3502   -12.0299    -2.1911 C       0      r0     0.0168
   1033 O          -15.1696   -10.9976    -2.1915 O       5      r5    -0.5013
   1034 C          -16.2193   -15.0869    -8.4338 C       0      r0     0.1713
   1035 C          -16.4899   -14.9025    -7.1449 C       0      r0     0.0011
   1036 C          -15.6644   -14.0113    -6.3013 C       0      r0    -0.0244
   1037 C          -14.7840   -13.1618    -6.7926 C       0      r0     0.1127
   1038 O          -14.5284   -13.1404    -8.2025 O       0      r0    -0.4776
   1039 O          -12.0078   -13.6479    -0.4118 O       5      r5    -0.4930
   1040 C          -11.0587   -12.7136    -0.9628 C       5      r5     0.1280
   1041 C           -9.9398   -12.2878    -0.2026 C       5      r5    -0.0274
   1042 C          -10.0470   -13.0161     0.9541 C       5      r5    -0.0352
   1043 C          -11.2130   -13.8719     0.8899 C       5      r5     0.1039
   1044 O          -17.5952   -14.5523    -3.8147 O       5      r5    -0.4965
   1045 C           18.2723   -15.0960    -3.4231 C       5      r5     0.0877
   1046 C           17.3455   -13.9904    -3.5119 C       5      r5    -0.0376
   1047 C           18.0760   -12.8157    -3.7193 C       5      r5    -0.0314
   1048 C          -17.9440   -13.2094    -3.9402 C       5      r5     0.1148
   1049 C          -12.7994   -10.3495    -0.1342 C       0      r0     0.1796
   1050 C          -12.8392    -9.6389    -1.3785 C       0      r0     0.0049
   1051 C          -12.0172    -8.6286    -1.8164 C       0      r0    -0.0260
   1052 C          -10.8646    -8.1785    -1.0999 C       0      r0     0.0177
   1053 O          -12.0762   -10.0712     0.7656 O       0      r0    -0.4779
   1054 C           18.0013   -16.3727    -3.0744 C       0      r0    -0.0422
   1055 C          -11.4965   -14.6617     1.8653 C       0      r0    -0.0458
   1056 H          -17.2534   -13.8195    -1.9349 H       0      r0     0.0906
   1057 H          -15.7646   -13.4610     0.1356 H       0      r0     0.0535
   1058 H          -14.9495   -13.9252    -3.8843 H       0      r0     0.0482
   1059 H          -13.5089   -13.7953    -1.7521 H       0      r0     0.1009
   1060 H          -13.3104   -11.9144    -6.5885 H       0      r0     0.1212
   1061 H          -17.3112   -11.0626    -4.1805 H       0      r0     0.0324
   1062 H          -16.5394   -11.9784    -5.1224 H       0      r0     0.0317
   1063 H          -14.5969   -11.4240     0.8843 H       0      r0     0.1179
   1064 H          -13.2131   -12.5025     0.4785 H       0      r0     0.1267
   1065 H          -10.6564   -11.5184    -2.7729 H       0      r0     0.0764
   1066 H          -17.6142   -15.6269    -5.4632 H       0      r0     0.1447
   1067 H          -15.7931   -14.1027    -5.3001 H       0      r0     0.0582
   1068 H           -9.1527   -11.6251    -0.4966 H       0      r0     0.0406
   1069 H           -9.3514   -12.9021     1.7737 H       0      r0     0.0291
   1070 H           16.2937   -14.0095    -3.4280 H       0      r0     0.0340
   1071 H           17.7126   -11.7782    -3.7433 H       0      r0     0.0450
   1072 H          -13.5801   -10.1060    -1.9848 H       0      r0     0.1383
   1073 H          -12.2200    -8.3410    -2.8605 H       0      r0     0.0695
   1074 H           17.0524   -16.6901    -2.7815 H       0      r0     0.0366
   1075 H          -18.4925   -17.0425    -3.2449 H       0      r0     0.0782
   1076 H          -10.8116   -14.6260     2.6976 H       0      r0     0.0409
   1077 H          -12.4212   -15.2844     1.8633 H       0      r0     0.0534
   1078 C           -9.3805    17.9656    -8.3317 C       6      r6    -0.0084
   1079 C          -10.4886    17.0864    -8.4510 C       6      r6    -0.0254
   1080 C          -11.1555    17.4984    -9.5142 C       6      r6     0.0050
   1081 C          -10.7902    18.7311   -10.3742 C       6      r6     0.1408
   1082 C           -9.9638   -16.7983    -9.9158 C       5      r5     0.1285
   1083 O           -8.5418   -17.0250    -9.8158 O       5      r5    -0.5067
   1084 C           -8.4107   -17.6257    -8.5763 C       5      r5     0.1499
   1085 C           -9.5439   -18.4996    -8.3066 C       6      r6     0.0119
   1086 C          -10.6410   -18.0207    -9.3481 C       6      r6     0.0257
   1087 C           -7.4760   -17.2205    -7.6200 C       0      r0     0.0031
   1088 C           -8.1313    17.3931    -7.6699 C       0      r0    -0.0240
   1089 C          -11.9279    18.9416   -11.4058 C       0      r0    -0.0048
   1090 C          -10.5066   -15.6807   -10.3197 C       0      r0    -0.0116
   1091 O           -9.5563    18.6922   -11.1301 O       0      r0    -0.6008
   1092 C           -7.9916   -18.3896    -4.2762 C       5      r5     0.0880
   1093 C           -6.8403   -17.5507    -4.0349 C       5      r5    -0.0248
   1094 C           -6.6042   -17.0830    -5.3136 C       5      r5    -0.0157
   1095 C           -7.5320   -17.6298    -6.2657 C       5      r5     0.1215
   1096 O           -8.5199   -18.5080    -5.8036 O       5      r5    -0.4892
   1097 O          -12.8782   -16.0252    -9.6317 O       0      r0    -0.4371
   1098 C          -11.9945   -15.4360   -10.1204 C       0      r0     0.1679
   1099 C          -11.9462   -14.0892   -10.7937 C       0      r0    -0.0511
   1100 C          -12.9467   -13.0510   -10.4853 C       0      r0    -0.0317
   1101 C          -13.6032   -13.3476    -9.3229 C       0      r0     0.1622
   1102 O           -8.2851    14.9516    -7.9856 O       0      r0    -0.4640
   1103 C           -8.3742    13.4165    -5.6090 C       0      r0     0.1667
   1104 C           -8.4678    14.6662    -5.0786 C       0      r0    -0.0254
   1105 C           -8.4450    15.9661    -5.8040 C       0      r0    -0.0272
   1106 C           -8.3272    16.0200    -7.0967 C       0      r0     0.1304
   1107 C          -13.3568   -18.7392   -10.8520 C       6      r6     0.1579
   1108 C          -14.2442   -18.5216   -11.8225 C       6      r6     0.0008
   1109 C          -16.0985   -18.2516   -10.1311 C       6      r6     0.0206
   1110 C          -15.0769   -18.4401    -9.0417 C       6      r6     0.1377
   1111 O          -13.5607   -18.8115    -9.5174 O       6      r6    -0.4369
   1112 C          -15.3630   -18.3952    -7.8650 C       0      r0    -0.0020
   1113 C           -8.3131   -18.8792    -3.1079 C       0      r0    -0.0433
   1114 H          -10.7821    16.1979    -7.9665 H       0      r0     0.0759
   1115 H          -12.0678    17.0312    -9.7918 H       0      r0     0.1128
   1116 H           -9.9554   -18.2050    -7.3331 H       0      r0     0.0947
   1117 H          -11.6434   -17.7229    -9.0157 H       0      r0     0.1308
   1118 H           -6.6763   -16.6062    -7.9648 H       0      r0     0.0580
   1119 H           -7.3501    17.3219    -8.4379 H       0      r0     0.0600
   1120 H           -7.7144    18.1272    -6.9414 H       0      r0     0.0908
   1121 H          -11.6975   -18.2589   -12.1291 H       0      r0     0.0544
   1122 H          -11.9565    18.0961   -12.1310 H       0      r0     0.0449
   1123 H           -9.9384   -14.8534   -10.7068 H       0      r0     0.0450
   1124 H           -6.3312   -17.3482    -3.0796 H       0      r0     0.0655
   1125 H           -5.7793   -16.4516    -5.5985 H       0      r0     0.0530
   1126 H          -11.2827   -13.8755   -11.5732 H       0      r0     0.0253
   1127 H          -13.1690   -12.0442   -10.9491 H       0      r0     0.1213
   1128 H           -8.3542    14.6087    -3.9474 H       0      r0     0.0481
   1129 H           -8.4031    16.8840    -5.2841 H       0      r0     0.0576
   1130 H          -14.0747   -18.5323   -12.8668 H       0      r0     0.0871
   1131 H          -18.1860   -10.2605   -13.0281 H       0      r0     0.3242
   1132 H          -16.3842   -18.1747    -7.4883 H       0      r0     0.1180
   1133 H          -14.7090   -18.5391    -6.9848 H       0      r0     0.0645
   1134 H           -7.7875   -18.6197    -2.2316 H       0      r0     0.0794
   1135 H           -9.1797    18.4139    -3.0519 H       0      r0     0.0611
   1136 C          -17.4423   -10.6608    -9.1829 C       6      r6    -0.0244
   1137 C          -17.4043    -9.2596    -9.3211 C       6      r6    -0.0417
   1138 C          -17.2464    -8.6310   -10.5328 C       6      r6    -0.0212
   1139 C          -16.8968    -9.3459   -11.8067 C       6      r6     0.0996
   1140 C          -16.4969   -11.7157   -12.7563 C       0      r0     0.1973
   1141 O          -17.5451   -12.1406   -13.0316 O       0      r0    -0.4605
   1142 C          -17.1972   -12.8871   -10.2106 C       0      r0     0.0025
   1143 C          -17.1586   -11.4029   -10.3219 C       6      r6    -0.0042
   1144 C          -16.4546   -10.7884   -11.5096 C       6      r6     0.0249
   1145 C          -18.3783   -13.6408   -10.4167 C       0      r0    -0.0007
   1146 C          -17.5407   -11.2413    -7.7546 C       0      r0    -0.0339
   1147 C          -15.7209    -8.6239   -12.4867 C       0      r0    -0.0122
   1148 C          -15.3219   -11.6684   -13.6889 C       0      r0     0.0037
   1149 O          -18.1320    -9.3312   -12.7630 O       0      r0    -0.5904
   1150 C          -17.1114   -17.2055   -10.1960 C       0      r0     0.1093
   1151 C          -18.3733   -17.3494   -10.5553 C       0      r0    -0.0102
   1152 C           18.3741   -16.0167   -10.5230 C       0      r0     0.0064
   1153 C          -18.0175   -14.9679   -10.3109 C       0      r0     0.1113
   1154 O          -16.6002   -15.6654    -9.8772 O       0      r0    -0.4584
   1155 O          -13.6485   -10.6186   -11.9770 O       5      r5    -0.5092
   1156 C          -14.1144   -11.1377   -13.3116 C       5      r5     0.0886
   1157 C          -13.3528   -11.1749   -14.4194 C       5      r5    -0.0479
   1158 C          -12.1313   -10.5840   -13.9285 C       5      r5    -0.0358
   1159 C          -12.2727   -10.3090   -12.5195 C       5      r5     0.0992
   1160 O           17.2561   -11.7463    -7.6877 O       0      r0    -0.4969
   1161 C           15.8639   -10.0719    -5.7257 C       0      r0     0.1460
   1162 C           17.0562    -9.5410    -5.5767 C       0      r0    -0.0046
   1163 C           18.3779   -10.0679    -6.2810 C       0      r0    -0.0159
   1164 C           18.4342   -10.9410    -7.1245 C       0      r0     0.1123
   1165 C          -16.0641    -7.1598   -12.8608 C       5      r5     0.1353
   1166 C          -17.3334    -6.6631   -12.7860 C       5      r5    -0.0113
   1167 C          -17.3002    -5.4233   -13.4035 C       5      r5    -0.0168
   1168 C          -15.9689    -5.1132   -13.9484 C       5      r5     0.0843
   1169 O          -15.0834    -6.3976   -13.3747 O       5      r5    -0.4899
   1170 C          -15.6361    -4.1486   -14.6018 C       0      r0    -0.0168
   1171 C          -15.4692   -18.2011   -11.1589 C       6      r6     0.0310
   1172 H          -17.5847    -8.5668    -8.4540 H       0      r0     0.0633
   1173 H          -17.4035    -7.6009   -10.5165 H       0      r0     0.0525
   1174 H          -16.3104   -13.3778    -9.9254 H       0      r0     0.1237
   1175 H          -15.3765   -10.7934   -11.2008 H       0      r0     0.1097
   1176 H           17.9965   -13.2444   -10.5782 H       0      r0     0.0850
   1177 H          -17.3487   -12.2980    -7.8211 H       0      r0     0.0682
   1178 H          -16.6878   -10.9908    -7.1345 H       0      r0     0.0456
   1179 H          -14.7280    -8.6290   -11.9894 H       0      r0     0.0835
   1180 H          -15.3013    -9.2032   -13.3580 H       0      r0     0.0628
   1181 H          -15.5179   -12.0437   -14.6140 H       0      r0     0.1149
   1182 H           18.4350   -18.2238   -10.9388 H       0      r0     0.0516
   1183 H           17.3841   -15.8111   -10.7295 H       0      r0     0.0690
   1184 H          -13.5891   -11.6357   -15.4339 H       0      r0     0.0718
   1185 H          -11.2937   -10.3331   -14.5006 H       0      r0     0.0722
   1186 H           17.1992    -8.6590    -4.9155 H       0      r0     0.0675
   1187 H          -18.0442    -9.5772    -5.9629 H       0      r0     0.0612
   1188 H          -18.2219    -7.1500   -12.3730 H       0      r0     0.0889
   1189 H          -18.1094    -4.7102   -13.4255 H       0      r0     0.1079
   1190 H          -16.3627    -3.4459   -14.9814 H       0      r0     0.0580
   1191 H          -14.6711    -4.0424   -15.0711 H       0      r0     0.0811
   1192 H           -9.0488   -18.4243   -11.0843 H       0      r0     0.3214
   1193 H           15.8345   -18.7145    -9.9904 H       0      r0     0.3389
   1194 C            9.7143    -7.8703     0.3232 C       0      r0     0.2024
   1195 C           10.6259    -7.3433    -0.7523 C       0      r0    -0.0201
   1196 C           11.9376    -7.3282    -0.7328 C       0      r0    -0.0245
   1197 C           12.7219    -7.7134     0.4525 C       0      r0     0.2049
   1198 C           14.2092    -8.0378     0.1854 C       0      r0    -0.0026
   1199 O           12.2490    -7.9177     1.5093 O       0      r0    -0.4536
   1200 O            8.6492    -7.5443     0.6128 O       0      r0    -0.4721
   1201 C           14.2112    -9.5025    -0.4078 C       5      r5     0.1563
   1202 C           15.3516    -9.9647    -1.0172 C       5      r5    -0.0144
   1203 C           15.2363   -11.3193    -1.4666 C       5      r5    -0.0251
   1204 C           13.8513   -11.4939    -1.1590 C       5      r5     0.1265
   1205 O           13.1669   -10.3310    -0.3337 O       5      r5    -0.4370
   1206 C           13.4821   -12.6104    -1.6629 C       0      r0    -0.0193
   1207 C           10.0729    -9.3449     0.7804 C       0      r0     0.0493
   1208 C            8.0110   -11.4434    -3.2618 C       0      r0     0.1655
   1209 C            8.6337   -11.4756    -1.9341 C       0      r0     0.0032
   1210 C            9.0436   -10.2835    -1.2038 C       0      r0    -0.0015
   1211 C            9.4695   -10.4326     0.0549 C       0      r0     0.1571
   1212 O            9.5831   -11.6196     0.7161 O       0      r0    -0.4970
   1213 H           10.1406    -6.9783    -1.5869 H       0      r0     0.0414
   1214 H           12.4840    -7.0466    -1.5806 H       0      r0     0.0234
   1215 H           14.6124    -7.3850    -0.5633 H       0      r0     0.0278
   1216 H           14.8921    -7.9124     0.9662 H       0      r0     0.0645
   1217 H           16.2154    -9.3172    -1.0981 H       0      r0     0.0709
   1218 H           16.0156   -11.9450    -1.8096 H       0      r0     0.0439
   1219 H           14.0660   -13.2238    -2.3265 H       0      r0     0.0318
   1220 H           12.4204   -12.8907    -1.4719 H       0      r0     0.0934
   1221 H           11.1261    -9.6799     0.8846 H       0      r0     0.1548
   1222 H            9.7898    -9.4512     1.8379 H       0      r0     0.0957
   1223 H            8.7918   -12.5427    -1.5289 H       0      r0     0.1513
   1224 H            9.0047    -9.3724    -1.7694 H       0      r0     0.0642
   1225 C           15.0910   -14.1908    14.6135 C       0      r0     0.1590
   1226 C           14.9966   -12.7527    14.3990 C       0      r0    -0.0381
   1227 C           14.4038   -11.9755    13.4786 C       0      r0    -0.0167
   1228 C           13.6855   -12.3910    12.3370 C       0      r0     0.1610
   1229 C           13.6301   -13.8470    11.9644 C       0      r0     0.0164
   1230 O           13.0264   -11.5673    11.5853 O       0      r0    -0.4789
   1231 O           14.9062   -15.1886    14.0299 O       0      r0    -0.4924
   1232 C           14.6723   -14.2938    10.9280 C       5      r5     0.1494
   1233 C           15.5736   -15.2776    11.1977 C       5      r5    -0.0092
   1234 C           16.2459   -15.4966    10.0011 C       5      r5    -0.0217
   1235 C           15.7885   -14.5963     8.9640 C       5      r5     0.0920
   1236 O           14.6898   -13.6427     9.7228 O       5      r5    -0.4944
   1237 C           16.1656   -14.4795     7.8210 C       0      r0    -0.0143
   1238 C           15.4709   -14.5204    16.1346 C       0      r0    -0.0001
   1239 C           10.7168   -15.6867    16.4472 C       0      r0     0.1437
   1240 C           12.0008   -15.5962    17.0437 C       0      r0    -0.0024
   1241 C           13.1700   -14.9890    16.3763 C       0      r0     0.0026
   1242 C           14.3581   -14.9936    16.9569 C       0      r0     0.1486
   1243 O           14.7258   -15.4333    18.1974 O       0      r0    -0.5009
   1244 H           15.5577   -12.2306    15.1758 H       0      r0     0.0480
   1245 H           14.4624   -10.8882    13.5079 H       0      r0     0.0809
   1246 H           13.6452   -14.5714    12.8555 H       0      r0     0.1139
   1247 H           12.5793   -14.0114    11.6693 H       0      r0     0.0783
   1248 H           15.7114   -15.7822    12.1048 H       0      r0     0.0945
   1249 H           16.9788   -16.2459     9.8052 H       0      r0     0.0608
   1250 H           16.8846   -15.1378     7.3519 H       0      r0     0.0688
   1251 H           15.7787   -13.6376     7.2077 H       0      r0     0.1014
   1252 H           16.3106   -15.1766    16.1789 H       0      r0     0.0663
   1253 H           16.0167   -13.7492    16.6398 H       0      r0     0.0489
   1254 H           12.1456   -15.9269    18.0583 H       0      r0     0.1113
   1255 H           12.9692   -14.5861    15.3924 H       0      r0     0.0940
   1256 C           -2.8648    -7.5293     9.3722 C       5      r5     0.1444
   1257 O           -2.7286    -6.1731     9.2892 O       5      r5    -0.4711
   1258 C           -4.1561    -5.8174     8.8534 C       5      r5     0.1003
   1259 C           -4.9520    -6.9274     8.5764 C       5      r5    -0.0321
   1260 C           -4.1657    -8.0010     8.9623 C       5      r5    -0.0010
   1261 C           -1.8705    -8.4921     9.7448 C       0      r0    -0.0113
   1262 C           -5.8235    -4.0336     8.2731 C       5      r5     0.1380
   1263 O           -6.3512    -2.8390     8.5934 O       5      r5    -0.4769
   1264 C           -7.6025    -2.9157     7.5994 C       5      r5     0.0911
   1265 C           -7.6025    -4.0861     6.8029 C       5      r5    -0.0199
   1266 C           -6.4997    -4.7865     7.2730 C       5      r5    -0.0077
   1267 C           -4.5682    -4.4802     8.7479 C       0      r0     0.0021
   1268 C           -1.9774    -9.8909     9.5547 C       0      r0     0.0941
   1269 C           -0.7684   -10.3792     9.9719 C       0      r0    -0.0146
   1270 C           -0.9424   -11.8013     9.7511 C       0      r0    -0.0079
   1271 C           -2.2900   -12.0185     9.2700 C       0      r0     0.0980
   1272 O           -3.2620   -10.7778     9.1055 O       0      r0    -0.4767
   1273 C           -2.4388   -13.2308     9.0916 C       0      r0    -0.0611
   1274 H           -5.9976    -6.9888     8.2899 H       0      r0     0.0385
   1275 H           -4.5172    -9.0102     9.0061 H       0      r0     0.1037
   1276 H           -0.9650    -8.0131    10.2244 H       0      r0     0.0544
   1277 H           -8.2641    -4.3514     6.0034 H       0      r0     0.0597
   1278 H           -6.0719    -5.6993     6.8426 H       0      r0     0.0581
   1279 H           -3.8568    -3.6949     9.0326 H       0      r0     0.0794
   1280 H            0.0662    -9.8729    10.4296 H       0      r0     0.0759
   1281 H           -0.1029   -12.4909     9.9592 H       0      r0     0.0714
   1282 H           -1.6757   -13.9779     9.2291 H       0      r0     0.0297
   1283 H           -3.4354   -13.5705     8.7659 H       0      r0     0.0458
   1284 C           -0.3163    -8.7637    18.6282 C       5      r5     0.1347
   1285 O            1.0709    -8.9768    18.4947 O       5      r5    -0.4898
   1286 C            1.0191    -9.4791    17.0333 C       5      r5     0.1015
   1287 C           -0.1963    -9.5579    16.4601 C       5      r5    -0.0435
   1288 C           -1.0840    -9.1237    17.4819 C       5      r5    -0.0136
   1289 C           -0.8854    -8.2162   -17.7565 C       0      r0     0.0122
   1290 C            2.3558   -10.3649    15.0255 C       0      r0     0.1089
   1291 O            3.5505   -10.1752    13.9730 O       0      r0    -0.4644
   1292 C            0.3743   -12.9404    13.3662 C       0      r0     0.1323
   1293 C            1.3602   -12.1211    13.5979 C       0      r0     0.0079
   1294 C            1.3712   -11.2483    14.8766 C       0      r0    -0.0202
   1295 C            2.2261    -9.7190    16.2594 C       0      r0    -0.0045
   1296 C           -2.2700    -7.9500   -17.5959 C       5      r5     0.1313
   1297 C           -2.7175    -7.5969   -16.2955 C       5      r5    -0.0069
   1298 C           -4.1037    -7.4493   -16.2178 C       5      r5    -0.0162
   1299 C           -4.4297    -7.7840   -17.5833 C       5      r5     0.0934
   1300 O           -3.1977    -8.0586   -18.6367 O       5      r5    -0.4716
   1301 C           -5.6649    -7.6464   -17.7441 C       0      r0    -0.0396
   1302 H           -0.4019    -9.8086    15.4220 H       0      r0     0.0327
   1303 H           -2.1654    -9.0710    17.3592 H       0      r0     0.0929
   1304 H           -0.2884    -7.9449   -16.8326 H       0      r0     0.0933
   1305 H            2.0959   -11.9839    12.7557 H       0      r0     0.1440
   1306 H            0.7550   -11.5548    15.7483 H       0      r0     0.0515
   1307 H            3.2294    -9.2931    16.4642 H       0      r0     0.0955
   1308 H           -2.0864    -7.4205   -15.4845 H       0      r0     0.0687
   1309 H           -4.7488    -7.2111   -15.3959 H       0      r0     0.0761
   1310 H           -6.4019    -7.4689   -16.9785 H       0      r0     0.0386
   1311 H           -6.0968    -7.9070   -18.6815 H       0      r0     0.0903
   1312 C          -13.7996     0.5541    -7.8352 C       0      r0     0.1355
   1313 O          -12.8672     1.6830    -7.4081 O       0      r0    -0.4608
   1314 C          -11.1071    -0.5780    -8.6410 C       0      r0     0.0359
   1315 C          -12.2347    -1.3117    -8.4528 C       0      r0    -0.0034
   1316 C          -13.5861    -0.6890    -8.2566 C       0      r0    -0.0180
   1317 C          -15.2014     0.7573    -7.7332 C       0      r0     0.0016
   1318 C           -9.8685     0.1174    -8.8831 C       0      r0     0.0035
   1319 H          -12.3166    -2.4018    -8.6252 H       0      r0     0.0990
   1320 H          -14.4369    -1.2939    -8.5380 H       0      r0     0.0410
   1321 H          -15.1394     1.8122    -7.4013 H       0      r0     0.1002
   1322 H          -10.0012     1.0281    -9.4972 H       0      r0     0.1154
   1323 C          -18.1389     1.9571    -4.6062 C       5      r5     0.1359
   1324 O          -17.9316     1.4602    -3.0821 O       5      r5    -0.4337
   1325 C          -17.7402     3.0146    -2.5664 C       5      r5     0.1373
   1326 C          -17.9981     4.0128    -3.6013 C       5      r5    -0.0484
   1327 C          -18.2762     3.3999    -4.7986 C       5      r5    -0.0429
   1328 C          -18.1644     1.3698    -5.6641 C       0      r0     0.1391
   1329 C          -17.4007     3.5647    -1.5416 C       0      r0     0.1148
   1330 H          -18.0149     5.0878    -3.3972 H       0      r0     0.0313
   1331 H          -18.4404     3.9304    -5.7219 H       0      r0     0.0619
   1332 H          -18.2766     1.9109    -6.6174 H       0      r0     0.0776
   1333 H          -17.3416     4.6200    -1.3267 H       0      r0     0.0482
   1334 C            1.3573    11.7027   -17.4801 C       6      r6    -0.0074
   1335 C            0.4732    10.6037   -17.6912 C       6      r6    -0.0395
   1336 C            1.1996     9.4803   -17.4193 C       6      r6    -0.0377
   1337 C            2.6692     9.4723   -16.9237 C       6      r6     0.1422
   1338 C            4.7438    10.8685   -17.5386 C       5      r5     0.1876
   1339 O            4.7133    12.1387   -17.0648 O       5      r5    -0.4888
   1340 C            3.6153    12.7509   -17.7585 C       5      r5     0.1335
   1341 C            2.6573    11.6836   -18.2198 C       6      r6    -0.0022
   1342 C            3.3954    10.3208   -17.9983 C       6      r6     0.0314
   1343 C            3.3324    14.0032   -17.8318 C       0      r0     0.0090
   1344 C            0.9210    12.7688   -16.4803 C       0      r0    -0.0100
   1345 C            3.0739     7.9643   -16.9517 C       0      r0    -0.0057
   1346 C            5.9277    10.1580   -17.7031 C       0      r0     0.0311
   1347 O            2.9576     9.9363   -15.6217 O       0      r0    -0.5417
   1348 C            0.2918    15.6282    18.0999 C       5      r5     0.2005
   1349 C            0.9906    14.8153    17.0031 C       5      r5    -0.0245
   1350 C            2.0806    14.2164    17.5010 C       5      r5    -0.0262
   1351 C            2.1640    14.5834   -18.6619 C       5      r5     0.1387
   1352 O            1.2680    15.3176   -18.0519 O       5      r5    -0.4824
   1353 O            5.0751     8.4036    18.3553 O       5      r5    -0.4883
   1354 C            6.0451     8.9372   -18.4509 C       5      r5     0.1391
   1355 C            7.2695     8.1923   -18.2459 C       5      r5    -0.0220
   1356 C            7.2484     6.9772    18.5682 C       5      r5    -0.0274
   1357 C            5.9913     7.1123    17.9410 C       5      r5     0.0938
   1358 O           -1.2772    11.9018   -15.6478 O       5      r5    -0.4803
   1359 C           -1.4856    10.9287   -14.3491 C       5      r5     0.0960
   1360 C           -0.2090    10.7933   -13.6363 C       5      r5    -0.0134
   1361 C            0.7346    11.4832   -14.3564 C       5      r5    -0.0051
   1362 C            0.0110    12.0483   -15.4084 C       5      r5     0.1553
   1363 C            2.5222     7.1439   -15.7721 C       5      r5     0.1508
   1364 C            1.3484     6.4245   -15.8840 C       5      r5    -0.0208
   1365 C            0.9747     6.1161   -14.6349 C       5      r5    -0.0073
   1366 C            1.8314     6.7427   -13.6037 C       5      r5     0.0783
   1367 O            3.1091     7.3797   -14.5932 O       5      r5    -0.5145
   1368 C           -2.5532    10.4317   -14.0369 C       0      r0    -0.0190
   1369 C            5.8115     6.1044    17.1437 C       0      r0    -0.0506
   1370 H           -0.5954    10.5829   -17.7620 H       0      r0     0.0668
   1371 H            0.8016     8.5036   -17.4731 H       0      r0     0.0282
   1372 H            2.3803    11.9019    18.2339 H       0      r0     0.0444
   1373 H            3.4691     9.7514    18.5837 H       0      r0     0.0803
   1374 H            4.0366    14.6797   -17.3983 H       0      r0     0.0765
   1375 H            1.8230    13.2532   -16.0576 H       0      r0     0.0831
   1376 H            0.5586    13.6841   -16.9814 H       0      r0     0.1061
   1377 H            2.7361     7.4645   -17.8612 H       0      r0     0.0280
   1378 H            4.1496     7.8332   -17.0088 H       0      r0     0.0915
   1379 H            6.8492    10.5756   -17.2041 H       0      r0     0.1306
   1380 H            0.6850    14.7539    15.9551 H       0      r0     0.0464
   1381 H            2.8079    13.6174    16.8848 H       0      r0     0.1228
   1382 H            8.0329     8.6109   -17.7048 H       0      r0     0.0521
   1383 H            8.0308     6.2268    18.5975 H       0      r0     0.0720
   1384 H            0.0725    10.2421   -12.7196 H       0      r0     0.1191
   1385 H            1.8299    11.5147   -14.2646 H       0      r0     0.0872
   1386 H            0.8335     6.2186   -16.7841 H       0      r0     0.0353
   1387 H           -0.0024     5.6043   -14.3811 H       0      r0     0.1155
   1388 H           -2.7808     9.8521   -13.1948 H       0      r0     0.0570
   1389 H           -3.4011    10.5904   -14.7040 H       0      r0     0.0718
   1390 H            6.5861     5.3997    16.8825 H       0      r0     0.0366
   1391 H            4.9066     5.9701    16.6871 H       0      r0     0.0519
   1392 C            2.2613     6.9801    -8.3909 C       6      r6     0.1012
   1393 C            2.9989     5.9073    -7.6214 C       6      r6    -0.0166
   1394 C            4.0252     6.2405    -6.7877 C       6      r6    -0.0371
   1395 C            4.5705     7.5450    -6.7843 C       6      r6    -0.0144
   1396 C            4.9213     9.4510    -7.6811 C       5      r5     0.1464
   1397 O            3.8756    10.2013    -8.1392 O       5      r5    -0.4726
   1398 C            3.0013     9.3430    -9.1218 C       5      r5     0.1242
   1399 C            3.3807     7.8665    -9.0557 C       6      r6    -0.0037
   1400 C            4.7769     8.0913    -8.0853 C       6      r6     0.0140
   1401 C            2.1505     9.8860    -9.7989 C       0      r0     0.0304
   1402 C            1.3207     6.3545    -9.4619 C       0      r0    -0.0072
   1403 C            4.9934     8.0710    -5.4275 C       0      r0    -0.0168
   1404 C            6.1518     9.9649    -7.2123 C       0      r0    -0.0119
   1405 O            1.1588     7.8688    -7.5148 O       0      r0    -0.4805
   1406 C           -0.2074     7.6979   -12.7740 C       0      r0     0.0111
   1407 C            1.2266     7.7389   -12.7707 C       0      r0     0.0073
   1408 C            1.9634     8.4472   -11.8745 C       0      r0    -0.0060
   1409 C            1.2431     9.3033   -10.9428 C       0      r0     0.1687
   1410 O            0.1264     9.6689   -10.9200 O       0      r0    -0.4998
   1411 O            7.4687     7.8512    -7.3712 O       5      r5    -0.4610
   1412 C            7.2851     9.1396    -6.9073 C       5      r5     0.1139
   1413 C            8.3108     9.7553    -6.1884 C       5      r5    -0.0240
   1414 C            9.3282     8.8104    -6.1974 C       5      r5    -0.0232
   1415 C            9.0116     7.6034    -6.9614 C       5      r5     0.0886
   1416 O            2.8667     5.4582   -11.2058 O       5      r5    -0.4956
   1417 C            2.7879     4.0611   -11.9448 C       5      r5     0.0940
   1418 C            1.7688     3.2590   -11.3240 C       5      r5    -0.0287
   1419 C            1.1240     4.0266   -10.3452 C       5      r5    -0.0329
   1420 C            1.7858     5.2310   -10.3673 C       5      r5     0.1181
   1421 C            3.7630     8.2294    -4.4511 C       0      r0     0.1766
   1422 C            2.5438     8.7185    -5.1019 C       0      r0     0.0012
   1423 C            1.3844     8.9723    -4.4237 C       0      r0     0.0144
   1424 C            0.9983     9.1008    -2.8713 C       7      r7     0.2951
   1425 O            3.9889     7.8970    -3.3454 O       0      r0    -0.4327
   1426 C            3.6169     3.5245   -12.8403 C       0      r0    -0.0201
   1427 C            9.7476     6.6859    -7.2591 C       0      r0    -0.0285
   1428 H            2.7209     4.8452    -7.7545 H       0      r0     0.0602
   1429 H            4.5038     5.5371    -6.0884 H       0      r0     0.0851
   1430 H            3.5331     7.3456    -9.9760 H       0      r0     0.0777
   1431 H            5.6033     7.6690    -8.6797 H       0      r0     0.0981
   1432 H            2.0849    10.9849    -9.7039 H       0      r0     0.0911
   1433 H            0.4278     6.0272    -8.9359 H       0      r0     0.0997
   1434 H            0.9430     7.1839   -10.0642 H       0      r0     0.0739
   1435 H            5.5517     7.3276    -4.8650 H       0      r0     0.0993
   1436 H            5.5337     9.0191    -5.4236 H       0      r0     0.0539
   1437 H            6.1129    11.0746    -7.0195 H       0      r0     0.0552
   1438 H            2.2127     6.1192   -12.7739 H       0      r0     0.1424
   1439 H            3.0491     8.3165   -11.8083 H       0      r0     0.0842
   1440 H            8.3200    10.7074    -5.7931 H       0      r0     0.0731
   1441 H           10.2718     8.9691    -5.7022 H       0      r0     0.0589
   1442 H            1.5353     2.2653   -11.6570 H       0      r0     0.0623
   1443 H            0.2643     3.6882    -9.8177 H       0      r0     0.0584
   1444 H            2.5692     8.8265    -6.1613 H       0      r0     0.1168
   1445 H            0.4314     9.3148    -4.8043 H       0      r0     0.0957
   1446 H            3.3939     2.4705   -13.0526 H       0      r0     0.0894
   1447 H            4.4178     4.0708   -13.2955 H       0      r0     0.1043
   1448 H           10.6818     6.7265    -6.8550 H       0      r0     0.0400
   1449 H            9.4930     5.8299    -7.8352 H       0      r0     0.1090
   1450 C            5.8389    12.1675   -12.9675 C       6      r6    -0.0178
   1451 C            5.2074    12.6507   -14.1024 C       6      r6    -0.0313
   1452 C            4.7401    13.8950   -13.7612 C       6      r6    -0.0198
   1453 C            4.7967    14.5060   -12.3748 C       6      r6     0.0911
   1454 C            5.2417    13.8273    -9.9730 C       5      r5     0.1737
   1455 O            6.4052    13.1211    -9.8108 O       5      r5    -0.4961
   1456 C            6.2356    11.9336   -10.5035 C       5      r5     0.1542
   1457 C            5.2087    12.1413   -11.5956 C       6      r6     0.0063
   1458 C            4.5533    13.4889   -11.2653 C       6      r6     0.0172
   1459 C            6.8540    10.7506   -10.2330 C       0      r0     0.0087
   1460 C            6.9752    11.2189   -13.2845 C       0      r0    -0.0124
   1461 C            3.6349    15.5619   -12.4727 C       0      r0    -0.0198
   1462 C            4.7104    14.7729    -9.1150 C       0      r0     0.0120
   1463 O            6.2269    15.4494   -12.2288 O       0      r0    -0.5243
   1464 C            5.9367     7.8260   -12.1271 C       5      r5     0.0959
   1465 C            7.0627     7.2959   -11.4509 C       5      r5    -0.0225
   1466 C            7.3921     8.4477   -10.6656 C       5      r5    -0.0070
   1467 C            6.5526     9.5237   -10.9527 C       5      r5     0.1356
   1468 O            5.5298     9.3789   -11.8416 O       5      r5    -0.4910
   1469 O            2.3826    14.9290    -9.9864 O       5      r5    -0.4729
   1470 C            3.4221    15.3842    -9.1611 C       5      r5     0.1272
   1471 C            3.1530    16.3614    -8.2170 C       5      r5    -0.0274
   1472 C            1.7959    16.7776    -8.2990 C       5      r5    -0.0427
   1473 C            1.3213    15.9862    -9.3421 C       5      r5     0.0991
   1474 O            7.7960    10.5907   -15.4459 O       0      r0    -0.4880
   1475 C            8.7060    12.4320   -17.1207 C       0      r0     0.1488
   1476 C            8.3570    13.3724   -16.1073 C       0      r0     0.0030
   1477 C            7.8394    12.8759   -14.9099 C       0      r0     0.0078
   1478 C            7.6336    11.5037   -14.6772 C       0      r0     0.1750
   1479 C            2.3603    14.9591   -13.2436 C       6      r6     0.0677
   1480 C            1.5851    13.7599   -12.8115 C       6      r6    -0.0173
   1481 C            0.0872    15.0747   -13.5025 C       6      r6     0.0131
   1482 C            0.6312    15.5780   -14.8393 C       6      r6     0.1269
   1483 O            1.9960    15.6057   -14.8041 O       6      r6    -0.4879
   1484 C           -0.2279    15.9333   -15.7532 C       0      r0    -0.0306
   1485 C            5.4493     6.9290   -12.8981 C       0      r0    -0.0166
   1486 H            5.1654    12.2936   -15.0969 H       0      r0     0.1324
   1487 H            4.1319    14.3394   -14.5357 H       0      r0     0.0846
   1488 H            4.4813    11.3188   -11.5092 H       0      r0     0.0907
   1489 H            3.4749    13.2360   -11.2312 H       0      r0     0.0684
   1490 H            7.5276    10.7109    -9.4298 H       0      r0     0.0552
   1491 H            7.6829    11.0558   -12.4602 H       0      r0     0.0602
   1492 H            6.5671    10.1586   -13.1555 H       0      r0     0.1329
   1493 H            3.3063    15.8167   -11.4671 H       0      r0     0.1013
   1494 H            3.9532    16.5103   -12.9810 H       0      r0     0.0835
   1495 H            5.2117    14.9462    -8.1756 H       0      r0     0.0528
   1496 H            7.5246     6.2982   -11.3791 H       0      r0     0.0746
   1497 H            8.1940     8.4449    -9.9886 H       0      r0     0.0775
   1498 H            3.8174    16.6125    -7.5085 H       0      r0     0.0411
   1499 H            1.2723    17.5105    -7.6661 H       0      r0     0.0369
   1500 H            8.5112    14.4582   -16.1141 H       0      r0     0.0680
   1501 H            7.7320    13.5589   -14.0503 H       0      r0     0.1096
   1502 H            1.7906    13.0586   -12.0653 H       0      r0     0.0664
   1503 H           -3.7107    13.3215    -7.1796 H       0      r0     0.3141
   1504 H           -1.2992    15.7785   -15.6697 H       0      r0     0.0280
   1505 H            0.2069    16.2416   -16.6655 H       0      r0     0.1335
   1506 H            5.7623     5.9292   -12.9929 H       0      r0     0.0788
   1507 H            4.5524     7.1026   -13.4807 H       0      r0     0.1374
   1508 C           -1.8670    12.8067    -9.3367 C       6      r6    -0.0171
   1509 C           -1.1882    11.5474    -9.0887 C       6      r6    -0.0414
   1510 C           -1.4180    11.2937    -7.8394 C       6      r6    -0.0312
   1511 C           -2.0496    12.2587    -6.8034 C       6      r6     0.1155
   1512 C           -2.2261    14.7401    -6.3994 C       5      r5     0.1407
   1513 O           -3.1988    15.2732    -7.2711 O       5      r5    -0.5039
   1514 C           -2.6095    15.1041    -8.5536 C       5      r5     0.1374
   1515 C           -1.5886    14.0429    -8.5516 C       6      r6     0.0039
   1516 C           -1.3920    13.6430    -7.0396 C       6      r6    -0.0002
   1517 C           -3.0044    15.8473    -9.6121 C       0      r0     0.0059
   1518 C           -2.7516    12.9127   -10.5438 C       0      r0     0.0014
   1519 C           -1.7229    11.7575    -5.3820 C       0      r0     0.0032
   1520 C           -2.0100    15.2697    -5.1579 C       0      r0     0.0050
   1521 O           -3.4890    12.3916    -6.8983 O       0      r0    -0.5825
   1522 C           -0.9395    15.4964   -12.5624 C       5      r5     0.1168
   1523 C           -1.8836    16.5334   -12.9221 C       5      r5    -0.0243
   1524 C           -2.7666    16.7700   -11.8976 C       5      r5    -0.0170
   1525 C           -2.4034    15.7898   -10.9344 C       5      r5     0.1110
   1526 O           -1.3073    14.9186   -11.2452 O       5      r5    -0.4840
   1527 O           -0.0219    13.8902    -4.3893 O       5      r5    -0.4772
   1528 C           -0.9999    14.8488    -4.2449 C       5      r5     0.1281
   1529 C           -1.0283    15.5476    -2.9942 C       5      r5    -0.0235
   1530 C           -0.0114    15.0925    -2.1627 C       5      r5    -0.0238
   1531 C            0.5714    14.0440    -2.9048 C       5      r5     0.1158
   1532 O           -4.5903    11.8716   -11.9451 O       0      r0    -0.4926
   1533 C           -4.7426     8.4973    -9.5410 C       0      r0     0.0856
   1534 C           -4.7436     9.6237   -10.2096 C       0      r0    -0.0264
   1535 C           -3.9224    10.9034    -9.8468 C       0      r0    -0.0167
   1536 C           -3.8251    11.8000   -10.6562 C       0      r0     0.1184
   1537 C           -2.6230    10.5555    -4.9257 C       5      r5     0.1534
   1538 C           -3.8981    10.9235    -4.6373 C       5      r5    -0.0039
   1539 C           -4.5280     9.7158    -4.2271 C       5      r5    -0.0086
   1540 C           -3.5250     8.7067    -4.1436 C       5      r5     0.1063
   1541 O           -2.1686     9.2689    -4.7220 O       5      r5    -0.4718
   1542 C           -3.8080     7.4806    -3.7750 C       0      r0    -0.0287
   1543 C            1.0757    14.9955   -12.5708 C       6      r6     0.0360
   1544 H           -0.7110    10.9201    -9.8423 H       0      r0     0.1312
   1545 H           -1.0205    10.3653    -7.5213 H       0      r0     0.0564
   1546 H           -0.6524    14.4137    -9.1030 H       0      r0     0.1017
   1547 H           -0.3765    13.6074    -6.6354 H       0      r0     0.0789
   1548 H           -3.7304    16.6446    -9.4719 H       0      r0     0.0656
   1549 H           -3.2838    13.8967   -10.5927 H       0      r0     0.1054
   1550 H           -2.1612    12.9548   -11.5302 H       0      r0     0.1148
   1551 H           -0.6448    11.6847    -5.3097 H       0      r0     0.0806
   1552 H           -1.9670    12.5543    -4.6723 H       0      r0     0.0775
   1553 H           -2.6507    16.0898    -4.8134 H       0      r0     0.0684
   1554 H           -1.7621    17.1710   -13.7953 H       0      r0     0.0454
   1555 H           -3.4723    17.5793   -11.8131 H       0      r0     0.0936
   1556 H           -1.6799    16.3206    -2.7099 H       0      r0     0.0577
   1557 H            0.2454    15.4297    -1.1881 H       0      r0     0.0870
   1558 H           -5.3461     9.7790   -11.1332 H       0      r0     0.0890
   1559 H           -3.3114    10.7134    -8.9678 H       0      r0     0.0678
   1560 H           -4.3887    11.8634    -4.7564 H       0      r0     0.0711
   1561 H           -5.5433     9.6621    -3.8942 H       0      r0     0.1157
   1562 H           -4.8683     7.3013    -3.6009 H       0      r0     0.0609
   1563 H           -3.1535     6.6389    -3.6567 H       0      r0     0.0630
   1564 H            5.8458    16.4647   -11.8848 H       0      r0     0.3404
   1565 H            3.2692     9.0900   -15.0536 H       0      r0     0.3314
   1566 C            3.3989   -10.4300     7.5693 C       0      r0     0.1755
   1567 C            2.8744    -9.4673     6.5685 C       0      r0    -0.0049
   1568 C            1.6250    -9.3393     6.1096 C       0      r0    -0.0179
   1569 C            0.5105   -10.2705     6.3665 C       0      r0     0.1736
   1570 C           -0.8841    -9.8921     5.7665 C       0      r0    -0.0026
   1571 O            0.6220   -11.2277     7.0352 O       0      r0    -0.5149
   1572 O            4.5370   -10.6332     7.7177 O       0      r0    -0.5046
   1573 C           -1.5184   -11.0747     4.9767 C       5      r5     0.1451
   1574 C           -1.3839   -12.2663     5.6131 C       5      r5    -0.0043
   1575 C           -1.8320   -13.2225     4.7011 C       5      r5    -0.0307
   1576 C           -2.3179   -12.5216     3.5385 C       5      r5     0.0938
   1577 O           -2.1450   -10.9367     3.7575 O       5      r5    -0.4800
   1578 C           -2.8290   -13.0321     2.4958 C       0      r0    -0.0223
   1579 C            2.4311   -10.7692     8.6998 C       0      r0     0.0279
   1580 C            4.1723    -9.9943    12.8376 C       0      r0     0.2133
   1581 C            4.8589    -9.7866    11.5955 C       0      r0    -0.0208
   1582 C            4.3496   -10.1554    10.3847 C       0      r0    -0.0111
   1583 C            2.9838   -10.6293    10.1618 C       0      r0     0.1812
   1584 O            2.1750   -10.9591    10.9315 O       0      r0    -0.4823
   1585 H            3.6320    -8.7544     6.3781 H       0      r0     0.0936
   1586 H            1.4857    -8.4878     5.5293 H       0      r0     0.0713
   1587 H           -1.5595    -9.4599     6.5356 H       0      r0     0.0512
   1588 H           -0.8726    -8.9280     5.1927 H       0      r0     0.0722
   1589 H           -0.9974   -12.5078     6.5923 H       0      r0     0.0943
   1590 H           -1.8714   -14.2590     4.8798 H       0      r0     0.0529
   1591 H           -2.9142   -14.1358     2.4736 H       0      r0     0.0666
   1592 H           -3.1190   -12.3811     1.6402 H       0      r0     0.0949
   1593 H            1.4331   -10.2279     8.6296 H       0      r0     0.0955
   1594 H            2.0920   -11.8228     8.5620 H       0      r0     0.1020
   1595 H            5.9860    -9.6124    11.6641 H       0      r0     0.0583
   1596 H            4.9628   -10.2812     9.5086 H       0      r0     0.1093
   1597 C           -2.2404   -13.3777    13.9965 C       0      r0     0.1498
   1598 C           -2.7910   -12.5677    14.9772 C       0      r0    -0.0184
   1599 C           -4.0456   -12.2047    15.4220 C       0      r0    -0.0185
   1600 C           -5.2953   -12.8029    15.0896 C       0      r0     0.1987
   1601 C           -6.4246   -12.3851    16.1916 C       0      r0     0.0109
   1602 O           -5.6036   -13.4873    14.1966 O       0      r0    -0.4946
   1603 O           -0.9873   -13.6006    13.7779 O       0      r0    -0.4661
   1604 C           -6.2061   -13.2003    17.4363 C       5      r5     0.1534
   1605 C           -7.2402   -13.1961    18.3537 C       5      r5    -0.0067
   1606 C           -6.7563   -13.8500   -18.0881 C       5      r5    -0.0073
   1607 C           -5.4001   -14.3767   -18.3310 C       5      r5     0.0961
   1608 O           -5.0627   -13.9205    17.7246 O       5      r5    -0.4446
   1609 C           -4.7743   -15.1273   -17.6195 C       0      r0    -0.0135
   1610 C           -3.1831   -14.2263    13.1840 C       0      r0     0.0112
   1611 C           -3.8110   -18.4298    14.8356 C       0      r0     0.1801
   1612 C           -3.5345   -17.2525    15.5784 C       0      r0     0.0261
   1613 C           -3.3309   -15.9630    15.0521 C       0      r0     0.0397
   1614 C           -3.3856   -15.7250    13.6600 C       0      r0     0.2040
   1615 O           -3.7024   -16.5298    12.8401 O       0      r0    -0.5117
   1616 H           -1.9615   -12.0075    15.4552 H       0      r0     0.0601
   1617 H           -4.1827   -11.4309    16.1476 H       0      r0     0.0463
   1618 H           -6.5309   -11.3356    16.3631 H       0      r0     0.0781
   1619 H           -7.4789   -12.4650    15.7812 H       0      r0     0.1266
   1620 H           -8.2548   -12.7419    18.2167 H       0      r0     0.0631
   1621 H           -7.4294   -14.1206   -17.2107 H       0      r0     0.1213
   1622 H           -5.2700   -15.2357   -16.6790 H       0      r0     0.0768
   1623 H           -3.7088   -15.3511   -17.7342 H       0      r0     0.0701
   1624 H           -4.2242   -13.8378    13.1463 H       0      r0     0.1124
   1625 H           -2.8215   -14.2062    12.1485 H       0      r0     0.0599
   1626 H           -3.3569   -17.6110    16.5835 H       0      r0     0.0792
   1627 H           -3.0127   -15.1657    15.7165 H       0      r0     0.1013
   1628 C            0.5640    11.4248    13.0862 C       5      r5     0.1344
   1629 O            1.6681    10.4637    12.7251 O       5      r5    -0.4845
   1630 C            0.9461     9.2564    13.0082 C       5      r5     0.1398
   1631 C           -0.3518     9.4890    13.5239 C       5      r5    -0.0180
   1632 C           -0.6369    10.8656    13.5203 C       5      r5     0.0023
   1633 C            0.6400    12.8252    12.8723 C       0      r0     0.0070
   1634 C            0.8528     6.7639    12.7773 C       5      r5     0.1154
   1635 O            1.4223     5.5574    12.2013 O       5      r5    -0.4669
   1636 C            0.4153     4.6176    12.6906 C       5      r5     0.3296
   1637 C           -0.5279     5.1252    13.5338 C       5      r5     0.0277
   1638 C           -0.1903     6.4532    13.7070 C       5      r5    -0.0362
   1639 C            1.3976     8.0120    12.5405 C       0      r0     0.0129
   1640 C           -0.4229    13.7144    13.0045 C       5      r5     0.1392
   1641 C           -0.1913    15.0491    12.5781 C       5      r5    -0.0213
   1642 C           -1.3811    15.8190    12.5862 C       5      r5    -0.0430
   1643 C           -2.2587    14.8399    13.1268 C       5      r5     0.0915
   1644 O           -1.6959    13.3530    13.3043 O       5      r5    -0.4784
   1645 C           -3.4235    15.4175    13.2798 C       0      r0    -0.0479
   1646 H           -1.0512     8.7051    13.7814 H       0      r0     0.0320
   1647 H           -1.5487    11.3400    13.8336 H       0      r0     0.0927
   1648 H            1.5727    13.2000    12.4831 H       0      r0     0.0538
   1649 H           -1.3564     4.6484    14.0195 H       0      r0     0.0762
   1650 H           -0.6855     7.1722    14.3062 H       0      r0     0.0243
   1651 H            2.2642     7.9205    11.8960 H       0      r0     0.0770
   1652 H            0.7629    15.4421    12.3227 H       0      r0     0.0398
   1653 H           -1.5858    16.8641    12.2947 H       0      r0     0.0355
   1654 H           -3.6076    16.4433    13.1784 H       0      r0     0.0628
   1655 H           -4.2171    14.8011    13.7706 H       0      r0     0.0545
   1656 C           10.5224     9.7888    18.2337 C       5      r5     0.1066
   1657 O           11.4739     8.6137    17.6011 O       5      r5    -0.4797
   1658 C           12.4169     8.8609   -18.7270 C       5      r5     0.1043
   1659 C           11.9363     9.6362   -17.6577 C       5      r5    -0.0343
   1660 C           10.7631    10.2894   -18.0785 C       5      r5    -0.0111
   1661 C            9.4087    10.1669    17.4820 C       0      r0     0.0071
   1662 C           14.7046     8.5549   -17.8161 C       0      r0     0.1302
   1663 O           15.8216     7.7529   -17.6272 O       0      r0    -0.5443
   1664 C           16.7996     9.6903   -15.9010 C       0      r0     0.0033
   1665 C           15.6877    10.3466   -16.3974 C       0      r0    -0.0326
   1666 C           14.6514     9.7765   -17.2100 C       0      r0    -0.0182
   1667 C           13.6316     8.2732   -18.7435 C       0      r0    -0.0039
   1668 C            8.6036    11.3080    17.7752 C       0      r0     0.1004
   1669 C            7.5677    11.1852    16.8997 C       0      r0    -0.0299
   1670 C            6.7294    12.2928    17.2166 C       0      r0    -0.0262
   1671 C            7.4431    13.0741    18.2254 C       0      r0     0.0979
   1672 O            8.8838    12.5025   -18.7009 O       0      r0    -0.4680
   1673 C            6.7686    14.0496    18.5176 C       0      r0    -0.0362
   1674 H           12.3661     9.7226   -16.6984 H       0      r0     0.0312
   1675 H           10.2020    11.0414   -17.5952 H       0      r0     0.0957
   1676 H            9.1789     9.4858    16.6260 H       0      r0     0.1287
   1677 H           15.6562    11.3917   -16.0350 H       0      r0     0.0446
   1678 H           13.9172    10.2996   -17.7888 H       0      r0     0.0783
   1679 H           13.7026     7.5960    17.9223 H       0      r0     0.0768
   1680 H            7.4515    10.3869    16.1066 H       0      r0     0.0726
   1681 H            5.8309    12.5117    16.6360 H       0      r0     0.1015
   1682 H            5.7705    14.2732    18.0717 H       0      r0     0.0470
   1683 H            7.0839    14.6875   -18.2357 H       0      r0     0.0614
   1684 C           -6.5417    13.2515   -12.0487 C       5      r5     0.1624
   1685 O           -6.0617    14.4182   -11.4501 O       5      r5    -0.4610
   1686 C           -7.4761    15.1059   -11.4321 C       5      r5     0.1105
   1687 C           -8.5562    14.3599   -12.0609 C       5      r5    -0.0399
   1688 C           -7.9327    13.2831   -12.5653 C       5      r5    -0.0327
   1689 C           -5.8350    12.1755   -12.3029 C       0      r0     0.1724
   1690 C           -7.7635    16.3159   -10.9560 C       0      r0    -0.0061
   1691 H           -9.6036    14.4926   -12.1404 H       0      r0     0.0396
   1692 H           -8.3649    12.4985   -13.1481 H       0      r0     0.0672
   1693 H           -6.2910    11.4293   -12.9322 H       0      r0     0.0899
   1694 H           -8.3097    17.1773   -10.7181 H       0      r0     0.1093
   1695 C          -11.4473    11.1907   -16.0036 C       0      r0     0.0043
   1696 O           -8.9158    12.1859   -16.7388 O       0      r0    -0.4542
   1697 C           -9.1662    11.2826   -18.0159 C       0      r0     0.1280
   1698 C          -10.2317    10.2962   -18.1030 C       0      r0    -0.0150
   1699 C          -11.1662    10.2260   -17.0765 C       0      r0    -0.0297
   1700 C          -11.7075    11.9274   -15.1142 C       0      r0    -0.0348
   1701 C           -8.4395    11.2420    18.4283 C       0      r0    -0.0053
   1702 H          -10.2673     9.5991    18.5630 H       0      r0     0.0968
   1703 H          -11.9216     9.4495   -16.9931 H       0      r0     0.0445
   1704 H          -11.8711    12.5808   -14.2471 H       0      r0     0.0432
   1705 H           -7.9844    11.0280    17.5244 H       0      r0     0.0934
   1706 C           -4.9098    16.5233    -3.2646 C       5      r5     0.1462
   1707 O           -4.8659    15.2072    -3.1178 O       5      r5    -0.4867
   1708 C           -5.2890    14.9063    -4.6382 C       5      r5     0.1056
   1709 C           -5.5493    16.0614    -5.4519 C       5      r5    -0.0182
   1710 C           -5.2406    17.0622    -4.4990 C       5      r5    -0.0221
   1711 C           -4.6113    17.5095    -2.2380 C       0      r0     0.0061
   1712 C           -5.5105    13.8541    -5.3102 C       0      r0    -0.0037
   1713 H           -5.9443    16.2539    -6.4635 H       0      r0     0.0643
   1714 H           -5.1717    18.1280    -4.6786 H       0      r0     0.0666
   1715 H           -4.6738    18.5875    -2.3895 H       0      r0     0.1077
   1716 H           -5.6482    12.8287    -5.6730 H       0      r0     0.0836
   1717 C           -3.3350   -18.1454   -15.8586 C       5      r5     0.1258
   1718 O           -4.6107   -17.5767   -16.2875 O       5      r5    -0.4636
   1719 C           -5.2360   -18.8354   -16.8020 C       5      r5     0.1149
   1720 C           -4.2856    17.9687   -16.6219 C       5      r5    -0.0310
   1721 C           -3.1825    18.4172   -15.9917 C       5      r5    -0.0317
   1722 C           -2.2477   -17.3328   -15.3576 C       0      r0     0.0128
   1723 C           -6.2955    18.9043   -17.5888 C       0      r0    -0.0133
   1724 H           -4.5151    16.8901   -16.9082 H       0      r0     0.1086
   1725 H           -2.3361    17.7721   -15.7740 H       0      r0     0.0372
   1726 H           -1.2064   -17.6959   -15.1630 H       0      r0     0.0836
   1727 H           -7.1363    18.5600   -18.2271 H       0      r0     0.0692
   1728 C           -0.5104     6.4581    -6.8015 C       5      r5     0.1741
   1729 O           -0.0372     5.1625    -7.0069 O       5      r5    -0.4732
   1730 C           -1.3110     4.5373    -6.3112 C       5      r5     0.1086
   1731 C           -2.3797     5.3535    -5.9080 C       5      r5    -0.0310
   1732 C           -1.8396     6.6441    -6.1972 C       5      r5    -0.0223
   1733 C           -0.0946     7.6760    -7.0274 C       0      r0     0.1557
   1734 C           -1.7184     3.2611    -6.1679 C       0      r0     0.0202
   1735 H           -3.3300     5.1258    -5.4438 H       0      r0     0.0567
   1736 H           -2.2211     7.5921    -5.9001 H       0      r0     0.0936
   1737 H           -0.7949     8.4804    -6.8901 H       0      r0     0.0755
   1738 H           -2.2535     2.3809    -5.9221 H       0      r0     0.1649
   1739 C          -13.4196     0.5582    -0.3802 C       6      r6    -0.0026
   1740 C          -14.7904     0.5708    -0.2006 C       6      r6     0.0016
   1741 C          -15.3010    -0.5682     0.4024 C       6      r6     0.0016
   1742 C          -14.4132    -1.4779     1.2340 C       6      r6     0.0944
   1743 C          -12.5183    -2.9466     0.9212 C       5      r5     0.1810
   1744 O          -11.5413    -2.2493     1.4266 O       5      r5    -0.4888
   1745 C          -11.3548    -0.8782     0.6089 C       5      r5     0.1322
   1746 C          -12.5771    -0.7464    -0.3388 C       6      r6     0.0101
   1747 C          -13.4437    -2.0377     0.2595 C       6      r6     0.0318
   1748 C          -10.4104    -0.1432     0.7901 C       0      r0     0.0196
   1749 C          -12.8464     1.9161    -0.8706 C       0      r0    -0.0302
   1750 C          -15.3492    -2.6396     1.8062 C       0      r0    -0.0200
   1751 C          -12.6558    -4.3464     0.8947 C       0      r0     0.0022
   1752 O          -13.5871    -0.5304     2.4054 O       0      r0    -0.5418
   1753 C           -8.4669     2.7594    -1.9615 C       0      r0     0.1610
   1754 C           -8.8151     1.4502    -2.3016 C       0      r0     0.0083
   1755 C           -9.5278     0.6370    -1.3675 C       0      r0     0.0100
   1756 C           -9.9512     1.1103    -0.1130 C       0      r0     0.1763
   1757 O           -9.8410     2.2501     0.1904 O       0      r0    -0.4999
   1758 O          -14.5842    -4.3587    -0.5867 O       5      r5    -0.4872
   1759 C          -13.6584    -5.0278     0.1685 C       5      r5     0.1140
   1760 C          -13.6901    -6.4805     0.1707 C       5      r5    -0.0360
   1761 C          -14.7654    -6.9794    -0.6136 C       5      r5    -0.0486
   1762 C          -15.2690    -5.7272    -1.0698 C       5      r5     0.0899
   1763 O          -11.9236     0.8315    -2.9861 O       5      r5    -0.4772
   1764 C          -11.4855     1.5794    -4.3301 C       5      r5     0.1112
   1765 C          -12.0172     2.9176    -4.3142 C       5      r5    -0.0019
   1766 C          -12.6963     3.0677    -3.0920 C       5      r5    -0.0154
   1767 C          -12.5376     1.8942    -2.4386 C       5      r5     0.1410
   1768 C          -15.2231    -2.6124     3.3602 C       5      r5     0.1507
   1769 C          -16.4137    -2.4473     4.0517 C       5      r5    -0.0229
   1770 C          -16.0820    -2.0063     5.2876 C       5      r5    -0.0158
   1771 C          -14.6017    -1.7937     5.4563 C       5      r5     0.0700
   1772 O          -14.0714    -2.7207     3.9791 O       5      r5    -0.5083
   1773 C          -10.8409     1.0589    -5.3204 C       0      r0    -0.0158
   1774 C          -16.2559    -5.9145    -1.8359 C       0      r0    -0.0435
   1775 H          -15.3968     1.4715    -0.4211 H       0      r0     0.1350
   1776 H          -16.3507    -0.7508     0.5750 H       0      r0     0.0689
   1777 H          -12.3809    -0.8873    -1.3869 H       0      r0     0.0902
   1778 H          -14.0823    -2.5676    -0.5009 H       0      r0     0.1166
   1779 H           -9.8681    -0.5599     1.6813 H       0      r0     0.0953
   1780 H          -13.4277     2.7369    -0.5722 H       0      r0     0.0450
   1781 H          -11.8701     2.1411    -0.3573 H       0      r0     0.1058
   1782 H          -16.3858    -2.5698     1.4288 H       0      r0     0.0671
   1783 H          -14.9586    -3.6320     1.6154 H       0      r0     0.0765
   1784 H          -11.9790    -5.0691     1.3419 H       0      r0     0.0512
   1785 H           -8.3538     0.9950    -3.1573 H       0      r0     0.0951
   1786 H           -9.6071    -0.4189    -1.6308 H       0      r0     0.0974
   1787 H          -12.9859    -7.1076     0.6357 H       0      r0     0.0571
   1788 H          -15.0698    -8.0046    -0.7472 H       0      r0     0.0385
   1789 H          -11.8751     3.6358    -5.1479 H       0      r0     0.1035
   1790 H          -13.1468     3.9944    -2.7173 H       0      r0     0.0474
   1791 H          -17.3932    -2.4687     3.6491 H       0      r0     0.0782
   1792 H          -16.8186    -1.6739     5.9959 H       0      r0     0.1089
   1793 H          -10.5189     1.6891    -6.1257 H       0      r0     0.0552
   1794 H          -10.4182     0.1051    -5.3320 H       0      r0     0.0659
   1795 H          -16.6692    -6.8875    -1.9801 H       0      r0     0.0468
   1796 H          -16.7661    -5.0589    -2.2424 H       0      r0     0.0688
   1797 C          -15.3781     2.0915     8.5958 C       6      r6    -0.0204
   1798 C          -15.5383     2.0187     9.9905 C       6      r6    -0.0439
   1799 C          -14.7502     2.8145    10.8686 C       6      r6    -0.0524
   1800 C          -13.6780     3.5458    10.4537 C       6      r6    -0.0404
   1801 C          -14.3014     5.1287     8.5406 C       5      r5     0.1352
   1802 O          -15.2419     4.7474     7.5011 O       5      r5    -0.4518
   1803 C          -14.8873     3.4911     7.0516 C       5      r5     0.1433
   1804 C          -14.2048     2.7131     8.0527 C       6      r6    -0.0160
   1805 C          -13.4757     3.9308     9.0368 C       6      r6    -0.0045
   1806 C          -14.7400     3.1065     5.6751 C       0      r0     0.0266
   1807 C          -16.4518     1.2590     7.8257 C       0      r0    -0.0407
   1808 C          -12.5633     3.7388    11.4799 C       0      r0    -0.0127
   1809 C          -13.9763     6.2929     8.9762 C       0      r0    -0.0105
   1810 O          -11.2773     0.2576    11.0479 O       0      r0    -0.4749
   1811 C          -14.0688     0.2437     3.7452 C       5      r5     0.2838
   1812 C          -14.3926    -0.3581     5.2029 C       5      r5     0.0243
   1813 C          -14.3663     0.6987     6.0743 C       5      r5    -0.0214
   1814 C          -14.4522     1.8196     5.2331 C       5      r5     0.0907
   1815 O          -14.2773     1.7124     3.7177 O       5      r5    -0.4678
   1816 O          -11.7167     5.9061    10.1646 O       5      r5    -0.4932
   1817 C          -12.8384     6.6736     9.8030 C       5      r5     0.1189
   1818 C          -12.8033     8.0553    10.0269 C       5      r5    -0.0279
   1819 C          -11.6234     8.2665    10.6773 C       5      r5    -0.0159
   1820 C          -10.8743     7.0107    10.8785 C       5      r5     0.1144
   1821 O          -15.3373    -1.0508     8.0898 O       5      r5    -0.4793
   1822 C          -16.1257    -2.3430     8.7640 C       5      r5     0.0869
   1823 C          -17.5395    -1.9526     9.0237 C       5      r5    -0.0197
   1824 C          -17.6471    -0.6413     8.6861 C       5      r5    -0.0104
   1825 C          -16.4086    -0.2748     8.2096 C       5      r5     0.1406
   1826 C          -12.9682     4.7459    12.6321 C       0      r0     0.1207
   1827 C          -13.8391     5.5731    12.5253 C       0      r0    -0.0109
   1828 C          -14.4198     6.5133    13.7123 C       0      r0    -0.0183
   1829 C          -14.6547     7.7306    13.6193 C       0      r0     0.1428
   1830 O          -12.2319     4.5422    13.9647 O       0      r0    -0.4845
   1831 C          -15.6173    -3.4194     8.9923 C       0      r0    -0.0214
   1832 C           -9.8572     6.8340    11.5155 C       0      r0    -0.0117
   1833 H          -16.3569     1.4248    10.4166 H       0      r0     0.0508
   1834 H          -14.9331     2.5802    11.8709 H       0      r0     0.0442
   1835 H          -13.4538     2.0353     7.6598 H       0      r0     0.0452
   1836 H          -12.4099     4.1727     8.9040 H       0      r0     0.1023
   1837 H          -14.7815     3.7813     4.8070 H       0      r0     0.1514
   1838 H          -17.4913     1.7031     7.8411 H       0      r0     0.1067
   1839 H          -16.3309     1.4010     6.7104 H       0      r0     0.0404
   1840 H          -12.2520     2.8518    11.9438 H       0      r0     0.0794
   1841 H          -11.7173     4.2305    10.9649 H       0      r0     0.1420
   1842 H          -14.6777     6.9929     8.5728 H       0      r0     0.0576
   1843 H          -14.1847    -2.0216     6.3902 H       0      r0     0.1100
   1844 H          -14.3244     0.6817     7.1108 H       0      r0     0.0836
   1845 H          -13.5152     8.8080     9.6704 H       0      r0     0.0380
   1846 H          -11.3186     9.2611    10.9300 H       0      r0     0.0619
   1847 H          -18.2243    -2.5921     9.5173 H       0      r0     0.0489
   1848 H          -18.4902     0.0145     8.7855 H       0      r0     0.0755
   1849 H          -14.1838     5.5709    11.5043 H       0      r0     0.0513
   1850 H          -14.7144     5.9630    14.6312 H       0      r0     0.0540
   1851 H          -16.0445    -4.3150     9.3216 H       0      r0     0.0830
   1852 H          -14.5992    -3.6629     8.7568 H       0      r0     0.0794
   1853 H           -9.3494     7.6828    11.9707 H       0      r0     0.0474
   1854 H           -9.4137     5.8248    11.6205 H       0      r0     0.1095
   1855 C           -9.5711     2.0295     4.5507 C       6      r6    -0.0057
   1856 C           -9.8478     2.1329     3.1471 C       6      r6    -0.0024
   1857 C          -10.1406     3.4011     2.9148 C       6      r6    -0.0072
   1858 C          -10.2956     4.4706     4.0038 C       6      r6     0.1260
   1859 C          -10.9907     4.4089     6.5750 C       5      r5     0.1366
   1860 O          -10.1874     3.5989     7.3889 O       5      r5    -0.5100
   1861 C          -10.3936     2.3205     6.8747 C       5      r5     0.1339
   1862 C          -10.7586     2.3754     5.4880 C       6      r6    -0.0022
   1863 C          -11.1960     3.8287     5.1881 C       6      r6     0.0022
   1864 C          -10.3622     1.1912     7.6887 C       0      r0     0.0029
   1865 C           -8.2796     1.4730     5.1264 C       0      r0    -0.0178
   1866 C          -11.1068     5.5799     3.1760 C       0      r0    -0.0079
   1867 C          -11.4410     5.6435     6.9325 C       0      r0     0.0021
   1868 O           -9.1367     4.9822     4.5739 O       0      r0    -0.5663
   1869 C          -11.3026    -1.9271     6.2250 C       5      r5     0.1034
   1870 C          -11.2867    -2.3382     7.6306 C       5      r5    -0.0328
   1871 C          -10.8644    -1.1412     8.1717 C       5      r5    -0.0183
   1872 C          -10.6836    -0.1183     7.2082 C       5      r5     0.1285
   1873 O          -11.0016    -0.4342     5.9307 O       5      r5    -0.4802
   1874 O          -13.1533     5.9835     5.2008 O       5      r5    -0.4690
   1875 C          -12.3805     6.4696     6.2054 C       5      r5     0.1314
   1876 C          -12.7683     7.7383     6.6559 C       5      r5    -0.0239
   1877 C          -13.8361     8.3044     5.9703 C       5      r5    -0.0330
   1878 C          -14.1957     7.2406     5.1016 C       5      r5     0.1341
   1879 O           -7.5864     0.6423     2.7463 O       0      r0    -0.4958
   1880 C           -8.8848    -3.2142     4.0259 C       0      r0     0.0771
   1881 C           -8.2896    -2.0098     3.6968 C       0      r0    -0.0118
   1882 C           -8.4632    -0.7869     4.5206 C       0      r0    -0.0012
   1883 C           -8.1235     0.4535     4.1336 C       0      r0     0.1279
   1884 C          -12.1839     5.0666     2.1371 C       6      r6     0.0827
   1885 C          -12.8749     3.7840     2.2848 C       6      r6     0.0022
   1886 C          -14.3613     4.8996     1.2554 C       6      r6     0.0277
   1887 C          -13.5156     5.5595     0.1536 C       6      r6     0.1197
   1888 O          -12.2861     5.9326     0.6776 O       6      r6    -0.4711
   1889 C          -14.0195     5.8014    -1.0374 C       0      r0    -0.0568
   1890 C          -11.5995    -2.9316     5.5433 C       0      r0    -0.0274
   1891 H           -9.5914     1.4238     2.3805 H       0      r0     0.1275
   1892 H          -10.2636     3.7001     1.8783 H       0      r0     0.0985
   1893 H          -11.5052     1.6488     5.2142 H       0      r0     0.0962
   1894 H          -12.1719     3.9913     4.8322 H       0      r0     0.0788
   1895 H          -10.1162     1.3925     8.7116 H       0      r0     0.0869
   1896 H           -7.4429     2.2562     5.1774 H       0      r0     0.1212
   1897 H           -8.1809     1.0763     6.1309 H       0      r0     0.0397
   1898 H          -11.7103     6.1203     3.9216 H       0      r0     0.1090
   1899 H          -10.3904     6.3211     2.8276 H       0      r0     0.1056
   1900 H          -11.3443     5.9171     7.9920 H       0      r0     0.0939
   1901 H          -11.6305    -3.2415     8.1795 H       0      r0     0.1060
   1902 H          -10.7320    -1.0942     9.2522 H       0      r0     0.0796
   1903 H          -12.2951     8.2086     7.5023 H       0      r0     0.0474
   1904 H          -14.3932     9.1767     6.2623 H       0      r0     0.0309
   1905 H           -7.7636    -1.9667     2.7760 H       0      r0     0.0818
   1906 H           -8.9306    -0.9970     5.4876 H       0      r0     0.0867
   1907 H          -12.6724     2.9733     2.9902 H       0      r0     0.1014
   1908 H           16.5486     2.4304     3.6002 H       0      r0     0.2803
   1909 H          -14.9519     5.3160    -1.2982 H       0      r0     0.0308
   1910 H          -13.4000     6.2202    -1.8103 H       0      r0     0.0495
   1911 H          -11.7451    -3.9191     5.9632 H       0      r0     0.0297
   1912 H          -11.6726    -2.8207     4.4418 H       0      r0     0.1045
   1913 C          -18.0905     2.5207     3.1134 C       6      r6    -0.0158
   1914 C          -17.5063     1.2900     3.4159 C       6      r6    -0.0353
   1915 C          -18.3110     0.6796     4.2838 C       6      r6    -0.0306
   1916 C           17.5908     1.1899     4.6469 C       6      r6     0.1264
   1917 C           16.9808     3.5459     5.5883 C       5      r5     0.1538
   1918 O           16.7743     4.4115     4.5220 O       5      r5    -0.5166
   1919 C           17.9910     4.5178     3.8829 C       5      r5     0.1481
   1920 C          -18.4377     3.4329     4.2277 C       6      r6     0.0096
   1921 C           18.1077     2.5600     5.3478 C       6      r6     0.0023
   1922 C           18.4571     5.6565     3.2282 C       0      r0     0.0028
   1923 C          -18.0296     3.1087     1.6939 C       0      r0    -0.0226
   1924 C           17.0308     0.2726     5.8910 C       0      r0    -0.0067
   1925 C           16.3566     3.6525     6.8182 C       0      r0     0.0122
   1926 O           16.6402     1.4258     3.6680 O       0      r0    -0.5797
   1927 C          -15.5101     5.5322     1.9373 C       5      r5     0.1395
   1928 C          -16.0797     6.6848     1.3197 C       5      r5    -0.0399
   1929 C          -17.3663     6.9117     1.8597 C       5      r5    -0.0450
   1930 C          -17.5285     5.8435     2.7337 C       5      r5     0.1030
   1931 O          -16.2875     4.9676     2.9804 O       5      r5    -0.4647
   1932 O           18.0443     2.0765     8.0684 O       5      r5    -0.5248
   1933 C           16.7352     2.9528     8.0385 C       5      r5     0.1010
   1934 C           16.0697     3.1638     9.1554 C       5      r5    -0.0062
   1935 C           16.7899     2.4368    10.1681 C       5      r5    -0.0009
   1936 C           17.8830     1.7610     9.5687 C       5      r5     0.1033
   1937 O          -16.9824     2.5785    -0.4676 O       0      r0    -0.4854
   1938 C          -17.9251     0.1602    -1.8783 C       0      r0     0.2413
   1939 C           18.6329     0.1540    -0.5545 C       0      r0    -0.0019
   1940 C          -18.6213     1.1643     0.5657 C       0      r0    -0.0221
   1941 C          -17.8440     2.2237     0.5195 C       0      r0     0.1387
   1942 C           17.3688    -1.1937     5.6602 C       5      r5     0.1539
   1943 C           16.6703    -1.9321     4.6865 C       5      r5     0.0041
   1944 C           17.1695    -3.2381     4.5412 C       5      r5    -0.0116
   1945 C           18.1174    -3.2369     5.6254 C       5      r5     0.0964
   1946 O           18.3457    -1.7578     6.3248 O       5      r5    -0.4852
   1947 C          -18.6461    -4.3884     5.6708 C       0      r0    -0.0475
   1948 C          -13.6085     4.8674     2.4009 C       6      r6     0.0567
   1949 H          -16.7030     0.7878     2.9198 H       0      r0     0.0811
   1950 H          -17.9946    -0.2742     4.6792 H       0      r0     0.0680
   1951 H          -17.5645     3.8667     4.8031 H       0      r0     0.1027
   1952 H          -18.6046     2.2971     6.1975 H       0      r0     0.0869
   1953 H           17.7305     6.4237     3.0257 H       0      r0     0.0549
   1954 H           18.3282     3.6549     1.5169 H       0      r0     0.0359
   1955 H          -17.1604     3.9378     1.7205 H       0      r0     0.1347
   1956 H           17.4607     0.6585     6.7825 H       0      r0     0.1025
   1957 H           15.9727     0.4721     6.0906 H       0      r0     0.0629
   1958 H           15.5712     4.3930     6.9059 H       0      r0     0.0705
   1959 H          -15.6148     7.2314     0.4777 H       0      r0     0.0292
   1960 H          -18.1357     7.6680     1.6008 H       0      r0     0.0410
   1961 H           15.1899     3.8468     9.2695 H       0      r0     0.1022
   1962 H           16.6248     2.5430    11.2400 H       0      r0     0.1049
   1963 H           17.9913    -0.6516    -0.1743 H       0      r0     0.0515
   1964 H           18.1339     1.0513     1.5018 H       0      r0     0.0604
   1965 H           15.9163    -1.4907     4.0898 H       0      r0     0.0659
   1966 H           16.9470    -3.8688     3.7455 H       0      r0     0.0777
   1967 H           18.4884    -5.2712     5.0326 H       0      r0     0.0452
   1968 H          -17.8590    -4.5708     6.3938 H       0      r0     0.0514
   1969 H           -9.0523     4.7561     5.5322 H       0      r0     0.2816
   1970 H          -13.1776    -1.3628     2.8471 H       0      r0     0.3481
   1971 C           11.0762    -0.9171    15.1235 C       0      r0     0.1800
   1972 C           12.2957    -0.5482    15.8141 C       0      r0    -0.0094
   1973 C           12.5245     0.0402    16.9792 C       0      r0    -0.0292
   1974 C           11.5274     0.6748    17.8066 C       0      r0     0.1615
   1975 C           12.0755     1.2393   -18.4011 C       0      r0     0.0016
   1976 O           10.4108     0.9207    17.4885 O       0      r0    -0.5136
   1977 O           10.9633    -1.0776    13.9671 O       0      r0    -0.4996
   1978 C           11.7772     0.2789   -17.2869 C       5      r5     0.1526
   1979 C           10.6120    -0.4979   -17.3710 C       5      r5     0.0048
   1980 C           10.6740    -1.3025   -16.2913 C       5      r5    -0.0158
   1981 C           11.8962    -0.9957   -15.5184 C       5      r5     0.0975
   1982 O           12.6127     0.2013   -16.2299 O       5      r5    -0.4680
   1983 C           12.2420    -1.6028   -14.4050 C       0      r0    -0.0419
   1984 C            9.7093    -0.9579    15.9327 C       0      r0     0.0277
   1985 C            7.1871    -3.7653    15.5008 C       5      r5     0.1112
   1986 C            7.8343    -3.8238    14.2565 C       5      r5     0.0125
   1987 C            8.8369    -2.8292    14.4100 C       5      r5     0.0292
   1988 C            8.7522    -2.1254    15.6104 C       5      r5     0.1674
   1989 O            7.7527    -2.4297    16.4074 O       5      r5    -0.4666
   1990 H           13.1370    -0.9278    15.2147 H       0      r0     0.0747
   1991 H           13.5691     0.0835    17.3180 H       0      r0     0.0484
   1992 H           13.1377     1.5032   -18.5691 H       0      r0     0.0554
   1993 H           11.8456     2.2772   -18.1331 H       0      r0     0.0680
   1994 H            9.8131    -0.5113   -18.1088 H       0      r0     0.0881
   1995 H            9.9852    -2.1018   -16.0318 H       0      r0     0.0492
   1996 H           11.4908    -2.3322   -14.1085 H       0      r0     0.0393
   1997 H           13.1895    -1.4190   -13.9277 H       0      r0     0.0679
   1998 H            9.8484    -0.7380    17.0150 H       0      r0     0.1324
   1999 H            9.1063    -0.0138    15.6640 H       0      r0     0.0825
   2000 H            7.6863    -4.5404    13.4221 H       0      r0     0.0820
   2001 H            9.5391    -2.6153    13.6040 H       0      r0     0.1102
   2002 C           17.2849     5.0458    12.4760 C       0      r0     0.2184
   2003 C           16.0779     4.9921    13.3544 C       0      r0     0.0109
   2004 C           15.7358     4.1165    14.2670 C       0      r0     0.0002
   2005 C           16.5275     2.9549    14.7382 C       0      r0     0.1908
   2006 C           16.1610     2.3064    16.1263 C       0      r0     0.0016
   2007 O           17.4533     2.5403    14.1720 O       0      r0    -0.4404
   2008 O           18.1518     4.3143    12.2503 O       0      r0    -0.4351
   2009 C           15.0156     3.0116    16.7791 C       5      r5     0.1429
   2010 C           13.7793     2.5365    16.2181 C       5      r5    -0.0490
   2011 C           12.8936     3.3538    16.8557 C       5      r5    -0.0370
   2012 C           13.6095     4.2743    17.7912 C       5      r5     0.0913
   2013 O           15.1863     3.9473    17.6737 O       5      r5    -0.4678
   2014 C           13.0643     5.0858    18.5070 C       0      r0    -0.0134
   2015 C           17.3102     6.3550    11.5326 C       0      r0     0.0018
   2016 C           14.5578     6.2592     9.0620 C       5      r5     0.0814
   2017 C           15.0292     7.5777     8.9039 C       5      r5    -0.0252
   2018 C           16.0023     7.6858     9.9027 C       5      r5    -0.0131
   2019 C           16.1008     6.4912    10.6554 C       5      r5     0.1688
   2020 O           15.2495     5.4826    10.4503 O       5      r5    -0.4605
   2021 H           15.5342     5.9059    13.1474 H       0      r0     0.0994
   2022 H           14.9067     4.2864    14.9284 H       0      r0     0.0565
   2023 H           15.9865     1.2564    15.9851 H       0      r0     0.0562
   2024 H           17.0205     2.1968    16.7627 H       0      r0     0.0906
   2025 H           13.6180     1.7941    15.4156 H       0      r0     0.0289
   2026 H           11.8357     3.4160    16.6913 H       0      r0     0.0522
   2027 H           12.0039     5.2029    18.5269 H       0      r0     0.1125
   2028 H           13.5439     5.7695   -18.3396 H       0      r0     0.1021
   2029 H           17.1832     7.2676    12.1463 H       0      r0     0.0368
   2030 H           18.3335     6.4078    11.0733 H       0      r0     0.0628
   2031 H           14.8375     8.2340     8.0904 H       0      r0     0.0658
   2032 H           16.6406     8.5482     9.9616 H       0      r0     0.0396
   2033 C           14.8694     6.3582   -14.9960 C       5      r5     0.1399
   2034 O           14.7287     5.6638   -16.2675 O       5      r5    -0.5057
   2035 C           15.9647     4.7686   -16.0556 C       5      r5     0.1135
   2036 C           16.6651     4.9599   -14.9090 C       5      r5    -0.0321
   2037 C           15.9849     5.9597   -14.2114 C       5      r5    -0.0001
   2038 C           13.8965     7.2756   -14.5989 C       0      r0     0.0119
   2039 C           17.2189     2.7005   -16.8614 C       5      r5     0.1206
   2040 O           17.9284     2.0127   -17.8848 O       5      r5    -0.4821
   2041 C           18.6053     0.9739   -16.8683 C       5      r5     0.0803
   2042 C           18.1418     1.0396   -15.5252 C       5      r5    -0.0497
   2043 C           17.3210     2.2236   -15.5638 C       5      r5    -0.0411
   2044 C           16.3626     3.8249   -17.0631 C       0      r0     0.0214
   2045 C           13.9981     8.0268   -13.3804 C       5      r5     0.1432
   2046 C           12.8966     8.8760   -13.0651 C       5      r5    -0.0110
   2047 C           12.9358     9.3468   -11.7608 C       5      r5    -0.0209
   2048 C           14.2537     8.8423   -11.4117 C       5      r5     0.0953
   2049 O           15.0453     7.9782   -12.5320 O       5      r5    -0.4655
   2050 C           14.5231     9.1818   -10.2582 C       0      r0    -0.0070
   2051 H           17.5240     4.3483   -14.5944 H       0      r0     0.0359
   2052 H           16.2635     6.2530   -13.1848 H       0      r0     0.1010
   2053 H           13.1244     7.5134   -15.3628 H       0      r0     0.0597
   2054 H           18.4654     0.3979   -14.7101 H       0      r0     0.0426
   2055 H           16.7213     2.5886   -14.7719 H       0      r0     0.0355
   2056 H           16.0942     4.0952   -18.0836 H       0      r0     0.1539
   2057 H           12.1255     9.0615   -13.7572 H       0      r0     0.0579
   2058 H           12.2137     9.9603   -11.2859 H       0      r0     0.1316
   2059 H           13.7663     9.7428    -9.6260 H       0      r0     0.1127
   2060 H           15.4465     8.9404    -9.7494 H       0      r0     0.1413
   2061 C          -14.3930    15.3844    -6.3019 C       5      r5     0.1516
   2062 O          -14.4066    15.0834    -4.9603 O       5      r5    -0.4469
   2063 C          -15.2465    16.3678    -4.4713 C       5      r5     0.0932
   2064 C          -15.7222    17.1746    -5.5140 C       5      r5    -0.0382
   2065 C          -15.1143    16.5663    -6.6127 C       5      r5     0.0025
   2066 C          -13.8527    14.5163    -7.2688 C       0      r0     0.0136
   2067 C          -16.5637    17.5189    -2.6631 C       0      r0     0.1771
   2068 O          -16.3869    18.0565    -1.6374 O       0      r0    -0.4670
   2069 C           18.1790    18.6352    -1.7658 C       0      r0     0.1901
   2070 C           18.3401    18.1215    -3.0884 C       0      r0    -0.0310
   2071 C          -17.8005    17.5820    -3.4916 C       0      r0    -0.0237
   2072 C          -15.5510    16.5103    -3.2380 C       0      r0     0.0168
   2073 C          -13.8557    14.8512    -8.6466 C       5      r5     0.1247
   2074 C          -13.5414    13.7589    -9.5255 C       5      r5    -0.0267
   2075 C          -13.6651    14.1246   -10.8828 C       5      r5    -0.0577
   2076 C          -13.9674    15.5085   -10.7033 C       5      r5     0.0890
   2077 O          -14.1674    16.0714    -9.2270 O       5      r5    -0.4529
   2078 C          -14.1028    16.0498   -11.8564 C       0      r0    -0.0617
   2079 H          -16.4562    17.8948    -5.4841 H       0      r0     0.0556
   2080 H          -15.3730    16.8417    -7.5794 H       0      r0     0.1014
   2081 H          -13.4889    13.5078    -7.0471 H       0      r0     0.0882
   2082 H           17.4184    18.1904    -3.7048 H       0      r0     0.0338
   2083 H          -17.6418    17.1401    -4.4371 H       0      r0     0.0423
   2084 H          -15.1047    15.8815    -2.4680 H       0      r0     0.0953
   2085 H          -13.3588    12.7543    -9.1892 H       0      r0     0.1013
   2086 H          -13.8227    13.5773   -11.7540 H       0      r0     0.0305
   2087 H          -14.0317    15.5269   -12.7822 H       0      r0     0.0351
   2088 H          -14.3239    17.0959   -11.8977 H       0      r0     0.0518
   2089 C           13.6949    12.3939    17.0086 C       5      r5     0.1130
   2090 O           13.8654    12.4367    18.6268 O       5      r5    -0.4866
   2091 C           12.7150    13.1412   -18.7398 C       5      r5     0.1423
   2092 C           11.8355    13.5274    17.8017 C       5      r5     0.0087
   2093 C           12.4511    13.0439    16.6683 C       5      r5     0.0081
   2094 C           14.5105    11.8384    16.1457 C       0      r0    -0.0205
   2095 C           12.1909    13.4729   -17.4138 C       0      r0    -0.0098
   2096 H           10.9018    14.0232    17.7818 H       0      r0     0.1333
   2097 H           12.0259    13.0602    15.6884 H       0      r0     0.1151
   2098 H           14.9442    11.4717    15.2216 H       0      r0     0.0455
   2099 H           11.2729    14.0838   -17.2356 H       0      r0     0.0847
   2100 C           14.7527   -17.6608   -18.5596 C       5      r5     0.1684
   2101 O           13.4699   -18.0089   -18.1450 O       5      r5    -0.4546
   2102 C           13.8617    18.4929   -17.7032 C       5      r5     0.0982
   2103 C           15.2035    18.0831   -17.7696 C       5      r5    -0.0393
   2104 C           15.7685   -18.6599   -18.3675 C       5      r5    -0.0290
   2105 C           15.3730   -16.5871    18.5769 C       0      r0     0.1514
   2106 C           13.1159    17.4820   -17.2716 C       0      r0    -0.0382
   2107 H           15.6458    17.1478   -17.5781 H       0      r0     0.0659
   2108 H           16.8368   -18.5724   -18.5805 H       0      r0     0.0584
   2109 H           16.4316   -16.5768    18.3409 H       0      r0     0.0661
   2110 H           12.6916    16.6213   -16.9735 H       0      r0     0.0430
   2111 C           12.1652   -10.1431    -9.9940 C       6      r6    -0.0164
   2112 C           12.4460   -10.3677    -8.6098 C       6      r6    -0.0191
   2113 C           13.1623    -9.3532    -8.1777 C       6      r6    -0.0158
   2114 C           13.4098    -8.0666    -9.0052 C       6      r6     0.1361
   2115 C           14.4542    -7.7907   -11.3650 C       5      r5     0.1523
   2116 O           13.6017    -8.1168   -12.4175 O       5      r5    -0.4959
   2117 C           13.1577    -9.3824   -12.1925 C       5      r5     0.1317
   2118 C           13.3757    -9.8601   -10.7929 C       6      r6    -0.0221
   2119 C           14.2447    -8.6895   -10.1683 C       6      r6     0.0118
   2120 C           12.5151   -10.1665   -13.1521 C       0      r0    -0.0005
   2121 C           10.7682   -10.4084   -10.5680 C       0      r0    -0.0344
   2122 C           14.4024    -7.1671    -8.0735 C       0      r0     0.0194
   2123 C           15.4155    -6.8069   -11.4357 C       0      r0     0.0169
   2124 O           12.4595    -7.2649    -9.5752 O       0      r0    -0.5493
   2125 C           11.5016   -13.5151   -13.7646 C       5      r5     0.1130
   2126 C           12.1225   -13.6344   -12.4715 C       5      r5    -0.0319
   2127 C           12.5918   -12.3709   -12.0753 C       5      r5    -0.0329
   2128 C           12.2223   -11.5493   -13.1260 C       5      r5     0.0940
   2129 O           11.4479   -12.1619   -14.2743 O       5      r5    -0.4827
   2130 O           16.6980    -7.4917    -9.4177 O       5      r5    -0.4940
   2131 C           16.4549    -6.6985   -10.4814 C       5      r5     0.1325
   2132 C           17.2914    -5.6102   -10.7168 C       5      r5    -0.0231
   2133 C           18.2352    -5.4079    -9.6761 C       5      r5    -0.0513
   2134 C           17.8335    -6.5051    -8.8472 C       5      r5     0.0866
   2135 O            9.2794    -9.6591    -8.6397 O       5      r5    -0.4507
   2136 C            7.7955    -8.9954    -8.8127 C       5      r5     0.0969
   2137 C            7.7182    -8.4344   -10.1289 C       5      r5    -0.0097
   2138 C            8.9263    -8.7249   -10.7934 C       5      r5    -0.0179
   2139 C            9.6223    -9.5060    -9.9110 C       5      r5     0.1637
   2140 C           13.6648    -6.5023    -6.9169 C       5      r5     0.1667
   2141 C           12.3212    -6.7796    -6.7115 C       5      r5     0.0059
   2142 C           11.9446    -5.9329    -5.6956 C       5      r5    -0.0369
   2143 C           12.9560    -4.9022    -5.3837 C       5      r5     0.0603
   2144 O           14.3004    -5.6211    -6.1463 O       5      r5    -0.4638
   2145 C            6.9495    -8.9467    -7.8509 C       0      r0    -0.0169
   2146 C           18.4811    -6.5111    -7.7706 C       0      r0    -0.0399
   2147 H           12.2653   -11.2395    -8.0289 H       0      r0     0.0764
   2148 H           13.5485    -9.3735    -7.1612 H       0      r0     0.1025
   2149 H           14.1146   -10.6608   -10.8693 H       0      r0     0.0584
   2150 H           15.2372    -8.9471    -9.7396 H       0      r0     0.0863
   2151 H           12.2484    -9.7301   -14.1119 H       0      r0     0.1095
   2152 H           10.7935   -10.3330   -11.6246 H       0      r0     0.0379
   2153 H           10.5469   -11.4758   -10.3464 H       0      r0     0.0623
   2154 H           15.3420    -7.7069    -7.7745 H       0      r0     0.1001
   2155 H           14.9131    -6.4621    -8.6684 H       0      r0     0.1024
   2156 H           15.3410    -6.1784   -12.2859 H       0      r0     0.0880
   2157 H           12.1223   -14.5481   -11.8947 H       0      r0     0.0383
   2158 H           13.0767   -12.1106   -11.1828 H       0      r0     0.0605
   2159 H           17.3398    -4.9964   -11.6140 H       0      r0     0.0761
   2160 H          -18.3335    -4.6682    -9.6071 H       0      r0     0.0334
   2161 H            6.8640    -7.8952   -10.6237 H       0      r0     0.1315
   2162 H            9.1231    -8.5394   -11.8813 H       0      r0     0.0384
   2163 H           11.5768    -7.4469    -7.1981 H       0      r0     0.0906
   2164 H           10.9345    -5.8484    -5.2458 H       0      r0     0.0247
   2165 H            6.0297    -8.4631    -7.9993 H       0      r0     0.0869
   2166 H            7.1099    -9.4108    -6.8820 H       0      r0     0.0864
   2167 H          -18.0439    -5.8218    -7.4570 H       0      r0     0.0474
   2168 H           18.1983    -7.3172    -7.0788 H       0      r0     0.0829
   2169 C           10.9932    -0.3092    -3.0108 C       6      r6     0.1906
   2170 C           10.3195     0.4607    -1.9259 C       6      r6    -0.0074
   2171 C           10.3566     1.7656    -1.5540 C       6      r6    -0.0531
   2172 C           11.2764     2.3832    -2.3594 C       6      r6    -0.0305
   2173 C           12.6852     2.6767    -4.3618 C       5      r5     0.1717
   2174 O           11.9686     2.2384    -5.4317 O       5      r5    -0.4832
   2175 C           11.9557     0.7974    -5.2594 C       5      r5     0.1359
   2176 C           12.1770     0.4000    -3.8224 C       6      r6     0.0168
   2177 C           12.3755     1.8198    -3.1781 C       6      r6     0.0021
   2178 C           11.7854    -0.0058    -6.3469 C       0      r0     0.0253
   2179 C           11.3364     3.9691    -2.1903 C       0      r0    -0.0197
   2180 C           13.7065     3.6013    -4.3747 C       0      r0     0.0151
   2181 O           10.8492    -1.4323    -3.2631 O       0      r0    -0.4758
   2182 C           12.0453    -3.4165    -7.3762 C       5      r5     0.1346
   2183 C           12.5999    -3.5735    -6.0857 C       5      r5     0.0098
   2184 C           12.4960    -2.2268    -5.5517 C       5      r5    -0.0019
   2185 C           11.9467    -1.4034    -6.5322 C       5      r5     0.1423
   2186 O           11.5898    -1.9606    -7.7325 O       5      r5    -0.4736
   2187 O           14.3292     3.4733    -1.9724 O       5      r5    -0.4919
   2188 C           14.4039     4.0397    -3.1585 C       5      r5     0.1355
   2189 C           15.3436     5.1401    -3.3400 C       5      r5    -0.0277
   2190 C           15.9219     5.5144    -2.1492 C       5      r5    -0.0239
   2191 C           15.4111     4.4580    -1.3054 C       5      r5     0.0933
   2192 C           10.5793     4.7892    -3.1710 C       0      r0     0.1475
   2193 C            9.3150     4.4673    -3.4161 C       0      r0    -0.0199
   2194 C            8.4541     5.2159    -4.3045 C       0      r0    -0.0320
   2195 C            7.2660     4.6301    -4.0855 C       0      r0     0.0942
   2196 O           11.3011     5.8147    -3.6338 O       0      r0    -0.5052
   2197 C           15.9227     4.6120    -0.1778 C       0      r0    -0.0523
   2198 H            9.6305    -0.1348    -1.3057 H       0      r0     0.0726
   2199 H            9.6899     2.2348    -0.8374 H       0      r0     0.0655
   2200 H           13.1002    -0.1907    -3.8780 H       0      r0     0.0887
   2201 H           13.2935     1.7107    -2.4946 H       0      r0     0.0883
   2202 H           11.5771     0.5063    -7.2598 H       0      r0     0.0919
   2203 H           10.9471     4.1586    -1.1882 H       0      r0     0.0378
   2204 H           12.4168     4.1950    -2.0821 H       0      r0     0.1195
   2205 H           14.0843     3.9634    -5.2938 H       0      r0     0.0790
   2206 H           13.0407    -4.5371    -4.3258 H       0      r0     0.0539
   2207 H           12.7932    -1.9090    -4.5622 H       0      r0     0.0793
   2208 H           15.5012     5.5406    -4.3458 H       0      r0     0.0395
   2209 H           16.6272     6.3251    -1.9311 H       0      r0     0.0929
   2210 H            8.8829     3.6168    -2.9299 H       0      r0     0.0536
   2211 H            8.6785     6.0566    -4.9934 H       0      r0     0.0712
   2212 H           16.6433     5.4094     0.0235 H       0      r0     0.0576
   2213 H           15.7077     3.9512     0.6797 H       0      r0     0.0408
   2214 C           16.1083    -1.5552    -7.2377 C       6      r6    -0.0173
   2215 C           15.6928    -2.8894    -7.5811 C       6      r6    -0.0437
   2216 C           15.3626    -2.8050    -8.8720 C       6      r6    -0.0214
   2217 C           15.3729    -1.4995    -9.6634 C       6      r6     0.1180
   2218 C           14.6787     0.9125    -9.1827 C       5      r5     0.1337
   2219 O           15.7597     1.5274    -8.4376 O       5      r5    -0.4954
   2220 C           15.6978     0.9413    -7.2357 C       5      r5     0.1698
   2221 C           15.1491    -0.4242    -7.3492 C       6      r6     0.0101
   2222 C           14.4551    -0.5407    -8.8035 C       6      r6    -0.0022
   2223 C           16.0083     1.4990    -6.0083 C       0      r0     0.0167
   2224 C           17.2848    -1.5658    -6.3023 C       0      r0    -0.0307
   2225 C           14.8263    -1.7797   -11.0602 C       0      r0     0.0113
   2226 C           13.9510     1.5786   -10.1122 C       0      r0     0.0136
   2227 O           16.6867    -0.9657    -9.8960 O       0      r0    -0.5880
   2228 C           15.4791    -0.2912    -2.9411 C       5      r5     0.0921
   2229 C           16.1232     0.8396    -2.3667 C       5      r5    -0.0134
   2230 C           16.3309     1.5894    -3.5470 C       5      r5     0.0020
   2231 C           15.8249     0.9067    -4.7084 C       5      r5     0.1427
   2232 O           15.2069    -0.2704    -4.5479 O       5      r5    -0.4978
   2233 O           12.2572    -0.1753   -10.4956 O       5      r5    -0.4844
   2234 C           12.8506     1.0181   -10.9090 C       5      r5     0.1213
   2235 C           12.3705     1.6984   -12.0207 C       5      r5    -0.0284
   2236 C           11.4227     0.8320   -12.5585 C       5      r5    -0.0275
   2237 C           11.2293    -0.2809   -11.6618 C       5      r5     0.1168
   2238 O          -18.0408    -0.1423    -5.9317 O       0      r0    -0.4627
   2239 C          -16.2346    -0.0804    -8.2512 C       0      r0    -0.0097
   2240 C          -17.2477    -0.9004    -8.7409 C       0      r0    -0.0228
   2241 C          -18.4830    -1.2558    -8.0372 C       0      r0    -0.0023
   2242 C           18.5686    -0.8929    -6.7732 C       0      r0     0.1441
   2243 C           13.8532    -2.9498   -11.1640 C       6      r6     0.1444
   2244 C           12.7226    -2.8962   -10.3907 C       6      r6     0.0202
   2245 C           11.6432    -4.6897   -11.9445 C       6      r6     0.0202
   2246 C           12.9530    -4.7479   -12.6394 C       6      r6     0.1096
   2247 O           14.1277    -3.7689   -12.1626 O       6      r6    -0.4779
   2248 C           12.9632    -5.5397   -13.6198 C       0      r0    -0.0101
   2249 C           15.2928    -1.1737    -2.0363 C       0      r0    -0.0573
   2250 H           15.7671    -3.7910    -7.0338 H       0      r0     0.0839
   2251 H           15.1162    -3.7010    -9.3311 H       0      r0     0.0641
   2252 H           14.3738    -0.5491    -6.6044 H       0      r0     0.0852
   2253 H           13.4039    -0.7190    -8.8760 H       0      r0     0.1051
   2254 H           16.3672     2.5315    -5.9542 H       0      r0     0.0475
   2255 H           17.1135    -1.0570    -5.3559 H       0      r0     0.1177
   2256 H           17.5823    -2.5377    -5.9260 H       0      r0     0.0389
   2257 H           14.4457    -0.8668   -11.4101 H       0      r0     0.0635
   2258 H           15.6416    -1.8971   -11.8032 H       0      r0     0.1012
   2259 H           14.2645     2.5692   -10.3141 H       0      r0     0.1101
   2260 H           16.4056     1.0591    -1.3618 H       0      r0     0.0531
   2261 H           16.7977     2.5844    -3.4273 H       0      r0     0.0605
   2262 H           12.6970     2.6031   -12.4280 H       0      r0     0.0729
   2263 H           10.8603     0.9875   -13.4793 H       0      r0     0.0626
   2264 H          -17.0964    -1.1979    -9.7515 H       0      r0     0.0670
   2265 H           18.0820    -1.8855    -8.5109 H       0      r0     0.0905
   2266 H           12.5507    -2.2103    -9.5317 H       0      r0     0.1349
   2267 H            5.2033    -2.5365    -7.5518 H       0      r0     0.3107
   2268 H           12.0955    -6.0622   -13.9344 H       0      r0     0.0485
   2269 H           13.8837    -5.6391   -14.1861 H       0      r0     0.0951
   2270 H           15.5730    -1.1113    -0.9632 H       0      r0     0.0256
   2271 H           14.8563    -2.0845    -2.2625 H       0      r0     0.0444
   2272 C            7.7707    -3.7355    -7.9067 C       6      r6    -0.0073
   2273 C            8.5949    -3.2230    -6.8189 C       6      r6    -0.0315
   2274 C            8.0774    -2.0630    -6.5118 C       6      r6    -0.0098
   2275 C            6.7687    -1.4672    -7.0926 C       6      r6     0.1340
   2276 C            5.7454    -1.3475    -9.4237 C       5      r5     0.1281
   2277 O            5.3439    -2.6663    -9.7785 O       5      r5    -0.5191
   2278 C            6.5371    -3.3289    -9.9889 C       5      r5     0.1435
   2279 C            7.5371    -2.8932    -9.0707 C       6      r6     0.0098
   2280 C            6.9980    -1.3935    -8.6156 C       6      r6     0.0080
   2281 C            6.7680    -4.2442   -11.0091 C       0      r0     0.0100
   2282 C            7.5152    -5.2315    -8.0610 C       0      r0    -0.0264
   2283 C            6.6360     0.0162    -6.5242 C       0      r0     0.0130
   2284 C            5.1844    -0.1951    -9.8674 C       0      r0    -0.0133
   2285 O            5.5996    -2.1734    -6.7341 O       0      r0    -0.5874
   2286 C           10.2038    -5.0090   -11.7868 C       5      r5     0.1265
   2287 C            9.5721    -5.7431   -12.7815 C       5      r5    -0.0440
   2288 C            8.2067    -5.5009   -12.5143 C       5      r5    -0.0254
   2289 C            8.0730    -4.7151   -11.3535 C       5      r5     0.1223
   2290 O            9.3218    -4.3811   -10.7453 O       5      r5    -0.4633
   2291 O            6.8892     1.3500    -8.9984 O       5      r5    -0.4801
   2292 C            5.7067     1.0990    -9.5631 C       5      r5     0.1230
   2293 C            4.9318     2.1939   -10.0606 C       5      r5    -0.0372
   2294 C            5.5600     3.4121   -10.0640 C       5      r5    -0.0209
   2295 C            6.8213     3.1445    -9.3556 C       5      r5     0.1755
   2296 O            5.0902    -6.3950    -8.3244 O       0      r0    -0.4865
   2297 C            4.0640    -5.1452    -4.5242 C       0      r0     0.1240
   2298 C            4.5980    -5.7419    -5.6063 C       0      r0    -0.0231
   2299 C            5.8502    -5.2170    -6.3262 C       0      r0    -0.0096
   2300 C            6.1217    -5.5426    -7.4649 C       0      r0     0.1053
   2301 C            6.4443    -0.0343    -4.9749 C       5      r5     0.1527
   2302 C            5.5349    -0.8953    -4.4587 C       5      r5     0.0249
   2303 C            5.4373    -0.5856    -3.1106 C       5      r5    -0.0057
   2304 C            6.3694     0.4848    -2.8717 C       5      r5     0.1092
   2305 O            7.1198     0.8715    -4.1869 O       5      r5    -0.4551
   2306 C            6.6596     1.0246    -1.7545 C       0      r0    -0.0249
   2307 C           11.8348    -3.7828   -10.9957 C       6      r6     0.0559
   2308 H            9.4460    -3.7541    -6.3985 H       0      r0     0.0619
   2309 H            8.6396    -1.6457    -5.7001 H       0      r0     0.0801
   2310 H            8.4668    -2.6522    -9.5795 H       0      r0     0.0958
   2311 H            7.6325    -0.5207    -8.9131 H       0      r0     0.0946
   2312 H            5.9441    -4.4915   -11.6069 H       0      r0     0.0749
   2313 H            7.6514    -5.6706    -9.0425 H       0      r0     0.0949
   2314 H            8.3769    -5.8046    -7.6852 H       0      r0     0.0551
   2315 H            7.4676     0.5919    -6.8270 H       0      r0     0.0931
   2316 H            5.7433     0.5437    -6.9585 H       0      r0     0.0748
   2317 H            4.2782    -0.2840   -10.4342 H       0      r0     0.0556
   2318 H           10.0712    -6.2716   -13.6160 H       0      r0     0.0291
   2319 H            7.3597    -5.8378   -13.0624 H       0      r0     0.0683
   2320 H            3.9917     2.0465   -10.5363 H       0      r0     0.0403
   2321 H            5.1579     4.4102   -10.2858 H       0      r0     0.0775
   2322 H            3.9133    -6.5148    -6.0427 H       0      r0     0.0713
   2323 H            6.7042    -4.6718    -5.8557 H       0      r0     0.0542
   2324 H            4.8838    -1.5922    -4.9587 H       0      r0     0.1386
   2325 H            4.8321    -1.0490    -2.3610 H       0      r0     0.0879
   2326 H            6.2124     0.6723    -0.8709 H       0      r0     0.0739
   2327 H            7.2735     1.8331    -1.6861 H       0      r0     0.0602
   2328 H           16.6439    -0.0853    -9.6158 H       0      r0     0.3467
   2329 H           12.5122    -7.3347   -10.6051 H       0      r0     0.2983
   2330 C           -3.3410    17.2803    16.0036 C       0      r0     0.1432
   2331 C           -4.0969    16.3744    16.7030 C       0      r0    -0.0203
   2332 C           -3.6405    15.5016    17.7543 C       0      r0    -0.0114
   2333 C           -2.4680    15.3715    18.3754 C       0      r0     0.1620
   2334 C           -2.6003    14.1924   -18.1772 C       0      r0    -0.0159
   2335 O           -1.4242    16.0956    18.2758 O       0      r0    -0.4935
   2336 O           -3.8584    18.0499    15.0693 O       0      r0    -0.4989
   2337 C           -3.5934    14.5314   -17.0103 C       5      r5     0.1317
   2338 C           -3.0972    14.1439   -15.8154 C       5      r5    -0.0119
   2339 C           -4.1364    14.4178   -14.9038 C       5      r5    -0.0212
   2340 C           -5.2262    15.0198   -15.6164 C       5      r5     0.0812
   2341 O           -4.8446    15.0436   -17.2094 O       5      r5    -0.4834
   2342 C           -6.3144    15.3997   -15.0161 C       0      r0    -0.0497
   2343 C           -1.9140    17.3056    15.9775 C       0      r0     0.0322
   2344 C           -1.1530   -16.9096    18.0068 C       0      r0     0.1451
   2345 C           -1.9067   -17.6914    18.6860 C       0      r0    -0.0284
   2346 C           -2.1684   -18.8912    17.9116 C       0      r0    -0.0090
   2347 C           -1.4843    18.6219    16.7398 C       0      r0     0.2013
   2348 O           -0.5385   -18.8357    16.1890 O       0      r0    -0.4880
   2349 H           -5.1413    16.4230    16.4909 H       0      r0     0.0708
   2350 H           -4.4545    14.7647    17.9203 H       0      r0     0.0623
   2351 H           -2.8729    13.2871   -18.6149 H       0      r0     0.0385
   2352 H           -1.6995    13.7716   -17.7917 H       0      r0     0.0656
   2353 H           -2.1066    13.7243   -15.5949 H       0      r0     0.1047
   2354 H           -4.1329    14.3460   -13.8389 H       0      r0     0.0782
   2355 H           -6.3346    15.3906   -13.9117 H       0      r0     0.0617
   2356 H           -7.1792    15.6165   -15.5859 H       0      r0     0.0522
   2357 H           -1.4005    16.4015    16.2666 H       0      r0     0.0859
   2358 H           -1.6324    17.2739    14.9275 H       0      r0     0.0751
   2359 H           -2.3518   -17.4567   -17.9531 H       0      r0     0.0617
   2360 H           -2.8615    18.3317    18.3046 H       0      r0     0.0645
   2361 C           -7.6439   -14.4297     9.7360 C       0      r0     0.1846
   2362 C           -6.4377   -14.7417    10.5529 C       0      r0    -0.0177
   2363 C           -6.2454   -15.6279    11.4962 C       0      r0    -0.0023
   2364 C           -7.1273   -16.7240    11.9601 C       0      r0     0.1903
   2365 C           -6.6496   -17.2135    13.4574 C       0      r0     0.0143
   2366 O           -7.9702   -17.3388    11.4732 O       0      r0    -0.4471
   2367 O           -8.7519   -14.6881     9.9701 O       0      r0    -0.4562
   2368 C           -7.8239   -16.9974    14.3832 C       5      r5     0.1716
   2369 C           -8.9051   -16.1674    14.0153 C       5      r5     0.0189
   2370 C           -9.8800   -16.0807    15.0214 C       5      r5    -0.0149
   2371 C           -9.2105   -16.8548    16.0189 C       5      r5     0.1018
   2372 O           -7.7353   -17.4674    15.6390 O       5      r5    -0.4538
   2373 C           -9.8644   -16.8375    17.0808 C       0      r0    -0.0099
   2374 C           -7.4270   -13.3997     8.5838 C       0      r0     0.0204
   2375 C          -10.8179   -13.1666     5.5378 C       0      r0     0.0342
   2376 C          -10.6886   -14.0157     6.6385 C       0      r0    -0.0096
   2377 C           -9.5081   -14.1852     7.4788 C       0      r0     0.0314
   2378 C           -8.5268   -13.3385     7.5570 C       0      r0     0.1845
   2379 O           -8.3682   -12.2493     6.7355 O       0      r0    -0.4870
   2380 H           -5.6277   -14.0582    10.3286 H       0      r0     0.0265
   2381 H           -5.2983   -15.7681    12.1126 H       0      r0     0.1029
   2382 H           -6.3598   -18.2409    13.3700 H       0      r0     0.0761
   2383 H           -5.7410   -16.8172    13.8178 H       0      r0     0.0989
   2384 H           -8.9881   -15.7844    13.0158 H       0      r0     0.0953
   2385 H          -10.8515   -15.6200    15.1050 H       0      r0     0.0548
   2386 H          -10.8240   -16.3256    17.1145 H       0      r0     0.0599
   2387 H           -9.4704   -17.2892    18.0083 H       0      r0     0.1070
   2388 H           -7.1574   -12.3218     8.9207 H       0      r0     0.1392
   2389 H           -6.4932   -13.6114     8.1010 H       0      r0     0.0572
   2390 H          -11.5130   -14.6290     7.0224 H       0      r0     0.1115
   2391 H           -9.5311   -15.0571     8.1408 H       0      r0     0.1204
   2392 C           13.0976    -3.0730    17.3030 C       5      r5     0.1370
   2393 O           11.8837    -3.6721    17.5837 O       5      r5    -0.4767
   2394 C           11.8287    -4.4278    16.1588 C       5      r5     0.0905
   2395 C           12.8918    -4.3363    15.3791 C       5      r5    -0.0396
   2396 C           13.7313    -3.3727    16.0745 C       5      r5    -0.0094
   2397 C           13.7483    -2.2409    18.2618 C       0      r0     0.0046
   2398 C           10.2702    -5.8370    14.6533 C       0      r0     0.1045
   2399 O            9.2213    -6.9340    14.5578 O       0      r0    -0.4633
   2400 C           11.6241    -5.3484    11.3114 C       0      r0     0.1545
   2401 C           10.8942    -5.9273    12.2608 C       0      r0    -0.0189
   2402 C           10.9439    -5.2319    13.5910 C       0      r0    -0.0310
   2403 C           10.7287    -5.2782    15.8609 C       0      r0    -0.0025
   2404 C           14.9241    -1.5505    17.9923 C       5      r5     0.0881
   2405 C           15.4121    -0.7083   -18.6277 C       5      r5    -0.0305
   2406 C           16.5243    -0.0901    18.3214 C       5      r5    -0.0157
   2407 C           16.9056    -0.5774    17.0096 C       5      r5     0.0838
   2408 O           15.7027    -1.6328    16.5826 O       5      r5    -0.4749
   2409 C           17.8752    -0.3196    16.3306 C       0      r0    -0.0092
   2410 H           13.0453    -4.7844    14.4370 H       0      r0     0.0369
   2411 H           14.6752    -2.9677    15.8457 H       0      r0     0.1269
   2412 H           13.2480    -2.0662   -18.3693 H       0      r0     0.0782
   2413 H           10.4435    -6.9241    12.0622 H       0      r0     0.0730
   2414 H           11.5763    -4.3763    13.7290 H       0      r0     0.0551
   2415 H            9.8656    -5.5852    16.5387 H       0      r0     0.0936
   2416 H           15.0340    -0.4986   -17.6482 H       0      r0     0.0612
   2417 H           17.0828     0.6402   -18.6774 H       0      r0     0.1255
   2418 H          -18.6376     0.3802    16.5659 H       0      r0     0.1013
   2419 H           18.0959    -0.7776    15.3195 H       0      r0     0.0961
   2420 C           12.3520    -8.5748   -17.0506 C       5      r5     0.1418
   2421 O           13.4926    -8.9957   -16.3701 O       5      r5    -0.4580
   2422 C           13.2689   -10.5104   -16.6681 C       5      r5     0.1000
   2423 C           12.0694   -10.8525   -17.2931 C       5      r5    -0.0271
   2424 C           11.5310    -9.6011   -17.6203 C       5      r5    -0.0029
   2425 C           12.0321    -7.2362   -17.1396 C       0      r0     0.0084
   2426 C           14.3352   -12.7984   -16.3466 C       5      r5     0.1371
   2427 O           15.4347   -13.5275   -15.9876 O       5      r5    -0.4752
   2428 C           14.7583   -14.9133   -16.2307 C       5      r5     0.1416
   2429 C           13.4264   -14.8716   -16.6911 C       5      r5     0.0086
   2430 C           13.1890   -13.4969   -16.6957 C       5      r5    -0.0011
   2431 C           14.2542   -11.3990   -16.2469 C       0      r0     0.0107
   2432 C           10.8758    -6.6919   -17.8233 C       5      r5     0.1414
   2433 C           10.7611    -5.3110   -17.5819 C       5      r5    -0.0170
   2434 C            9.6831    -4.7380   -18.2732 C       5      r5    -0.0156
   2435 C            9.1283    -5.9388    18.7138 C       5      r5     0.1000
   2436 O            9.9316    -7.3005   -18.5391 O       5      r5    -0.4721
   2437 C            8.0560    -5.6289    18.0970 C       0      r0    -0.0298
   2438 H           11.5846   -11.7616   -17.5148 H       0      r0     0.0493
   2439 H           10.5657    -9.4298   -18.0682 H       0      r0     0.1025
   2440 H           12.7380    -6.5036   -16.7841 H       0      r0     0.0876
   2441 H           12.7948   -15.7006   -16.8953 H       0      r0     0.0974
   2442 H           12.1858   -13.0045   -16.9386 H       0      r0     0.0537
   2443 H           15.0485   -10.7958   -15.7585 H       0      r0     0.0922
   2444 H           11.4989    -4.7369   -16.9826 H       0      r0     0.0524
   2445 H            9.3034    -3.7013   -18.3643 H       0      r0     0.0660
   2446 H            7.7285    -4.6002    18.0593 H       0      r0     0.0661
   2447 H            7.4920    -6.4452    17.5915 H       0      r0     0.0963
   2448 C          -15.3301     2.8793   -18.0716 C       5      r5     0.1150
   2449 O          -14.2756     2.9917   -16.9058 O       5      r5    -0.4738
   2450 C          -15.2074     3.2353   -15.9280 C       5      r5     0.1410
   2451 C          -16.5655     3.3602   -16.2128 C       5      r5    -0.0284
   2452 C          -16.6319     3.1831   -17.5465 C       5      r5    -0.0110
   2453 C          -15.1141     2.4964    18.1973 C       0      r0    -0.0165
   2454 C          -14.9195     3.2045   -14.4880 C       0      r0    -0.0193
   2455 H          -17.3492     3.5998   -15.5316 H       0      r0     0.0406
   2456 H          -17.5790     3.1962   -18.0759 H       0      r0     0.1030
   2457 H          -15.3161     2.3009    17.1643 H       0      r0     0.0642
   2458 H          -13.8885     3.1088   -14.0860 H       0      r0     0.0603
   2459 C           -3.5851     5.3538    12.2939 C       0      r0     0.0975
   2460 O           -3.3621     6.4497    11.0478 O       0      r0    -0.4385
   2461 C           -2.7996     5.1871    10.1304 C       0      r0     0.1239
   2462 C           -2.5389     3.8671    10.7134 C       0      r0     0.0054
   2463 C           -3.0600     3.9889    12.0326 C       0      r0    -0.0156
   2464 C           -3.9870     5.5444    13.5365 C       0      r0    -0.0486
   2465 C           -2.3147     5.3071     8.9279 C       0      r0     0.0060
   2466 H           -2.0521     2.9958    10.3589 H       0      r0     0.1314
   2467 H           -2.9926     3.1804    12.7585 H       0      r0     0.0758
   2468 H           -4.2262     5.3825    14.5781 H       0      r0     0.0342
   2469 H           -1.9946     5.5354     7.9679 H       0      r0     0.0785
   2470 C           -5.6120   -12.5274   -13.6128 C       0      r0     0.0374
   2471 O           -4.2023   -10.1505   -14.0547 O       0      r0    -0.4433
   2472 C           -3.7399   -10.9502   -15.3807 C       0      r0     0.1192
   2473 C           -4.4544   -12.1230   -15.8587 C       0      r0    -0.0272
   2474 C           -5.3856   -12.8082   -15.0207 C       0      r0    -0.0086
   2475 C           -5.7957   -12.2022   -12.4900 C       0      r0     0.0103
   2476 C           -2.7552   -10.6226   -16.1812 C       0      r0    -0.0199
   2477 H           -4.2678   -12.4365   -16.8637 H       0      r0     0.0442
   2478 H           -5.9464   -13.5880   -15.5005 H       0      r0     0.0898
   2479 H           -5.9829   -12.0250   -11.4767 H       0      r0     0.0838
   2480 H           -1.9396   -10.2338   -16.7284 H       0      r0     0.0649
   2481 C          -11.3712    16.1093    -4.1752 C       5      r5     0.1369
   2482 O          -11.5642    15.9927    -2.7200 O       5      r5    -0.4555
   2483 C          -11.7911    17.3857    -2.5263 C       5      r5     0.1700
   2484 C          -11.7649    18.3478    -3.5790 C       5      r5    -0.0352
   2485 C          -11.5305    17.5043    -4.6245 C       5      r5    -0.0248
   2486 C          -11.1911    15.1403    -5.0748 C       0      r0    -0.0020
   2487 C          -12.0350    18.1336    -1.4440 C       0      r0     0.1753
   2488 H          -11.8348   -18.4998    -3.5880 H       0      r0     0.1066
   2489 H          -11.3304    17.7730    -5.6603 H       0      r0     0.0553
   2490 H          -11.0856    14.4625    -5.9255 H       0      r0     0.0647
   2491 H          -12.0569   -18.7326    -1.4631 H       0      r0     0.0800
   2492 C           12.9653    10.9150    -2.1033 C       6      r6    -0.0007
   2493 C           12.4365    11.1167    -0.7365 C       6      r6    -0.0137
   2494 C           13.0552    12.1104    -0.2841 C       6      r6    -0.0146
   2495 C           14.1587    12.8674    -1.1083 C       6      r6     0.1377
   2496 C           16.0562    12.3079    -2.6367 C       5      r5     0.1510
   2497 O           15.5233    11.9629    -3.8933 O       5      r5    -0.5113
   2498 C           14.8381    10.8157    -3.6917 C       5      r5     0.1465
   2499 C           14.4318    10.6426    -2.3072 C       6      r6     0.0130
   2500 C           15.1904    11.7516    -1.5227 C       6      r6     0.0069
   2501 C           14.5405     9.8081    -4.6479 C       0      r0    -0.0094
   2502 C           12.0034    10.7787    -3.2013 C       0      r0     0.0026
   2503 C           14.8742    13.8559    -0.1366 C       0      r0     0.0010
   2504 C           17.1919    13.0401    -2.3900 C       0      r0     0.0022
   2505 O           13.6811    13.5560    -2.1765 O       0      r0    -0.5766
   2506 C           12.0527     6.1773    -4.8093 C       0      r0     0.1401
   2507 C           12.8726     6.7355    -5.6960 C       0      r0    -0.0321
   2508 C           13.8441     7.8840    -5.4326 C       0      r0    -0.0400
   2509 C           13.9274     8.5448    -4.2926 C       0      r0     0.1263
   2510 O           13.4312     8.2645    -3.0324 O       0      r0    -0.5821
   2511 O           17.5046    12.7442     0.0600 O       5      r5    -0.4824
   2512 C           17.8886    13.1618    -1.1347 C       5      r5     0.1412
   2513 C          -18.1810    13.8605    -1.2734 C       5      r5    -0.0196
   2514 C          -17.4534    13.9120    -0.0650 C       5      r5    -0.0191
   2515 C          -18.4060    13.2210     0.7643 C       5      r5     0.0892
   2516 O            9.8188    11.2269    -4.1383 O       5      r5    -0.4827
   2517 C            8.8706    12.3714    -3.5598 C       5      r5     0.0854
   2518 C            9.4181    13.2795    -2.5629 C       5      r5    -0.0520
   2519 C           10.6798    12.7290    -2.4568 C       5      r5    -0.0151
   2520 C           10.8510    11.5345    -3.2845 C       5      r5     0.1355
   2521 C           14.0525    15.1537     0.0984 C       5      r5     0.1647
   2522 C           14.2269    16.0698    -0.9850 C       5      r5    -0.0084
   2523 C           13.5722    17.1709    -0.6199 C       5      r5    -0.0251
   2524 C           12.9956    17.1889     0.8003 C       5      r5     0.0662
   2525 O           13.3449    15.4620     1.1235 O       5      r5    -0.4711
   2526 C            7.7068    12.7721    -3.8277 C       0      r0    -0.0601
   2527 C          -18.0036    13.1695     1.9427 C       0      r0    -0.0299
   2528 H           11.6486    10.4705    -0.2340 H       0      r0     0.1591
   2529 H           12.8151    12.4514     0.7180 H       0      r0     0.0739
   2530 H           14.6459     9.6279    -1.9809 H       0      r0     0.1189
   2531 H           15.7950    11.3398    -0.6882 H       0      r0     0.0831
   2532 H           14.7592    10.0886    -5.6707 H       0      r0     0.0483
   2533 H           12.2518    10.0562    -3.9533 H       0      r0     0.0894
   2534 H           12.9546     7.4209    -3.0737 H       0      r0     0.3060
   2535 H           15.0944    13.4487     0.8474 H       0      r0     0.0706
   2536 H           15.7288    14.2541    -0.5702 H       0      r0     0.0712
   2537 H           17.6664    13.4280    -3.2925 H       0      r0     0.0560
   2538 H           12.8890     6.2248    -6.6533 H       0      r0     0.1094
   2539 H           14.2665     8.3240    -6.3222 H       0      r0     0.0520
   2540 H          -17.9477    14.3346    -2.1853 H       0      r0     0.0433
   2541 H          -16.5115    14.3483     0.2181 H       0      r0     0.0778
   2542 H            8.9486    14.0458    -2.0421 H       0      r0     0.0299
   2543 H           11.4306    13.1389    -1.8202 H       0      r0     0.0881
   2544 H           14.7080    15.8682    -1.9379 H       0      r0     0.0646
   2545 H           13.4900    17.9559    -1.3311 H       0      r0     0.0486
   2546 H            7.2337    13.6173    -3.4240 H       0      r0     0.0393
   2547 H            7.0809    12.2671    -4.5829 H       0      r0     0.0437
   2548 H          -17.1474    13.6326     2.3880 H       0      r0     0.0678
   2549 H          -18.6257    12.7172     2.6888 H       0      r0     0.0967
   2550 C           15.0877    15.9068     5.6863 C       6      r6     0.1404
   2551 C           14.3570    14.5914     5.5612 C       6      r6    -0.0082
   2552 C           15.1112    13.5839     5.7325 C       6      r6    -0.0287
   2553 C           16.3515    14.2999     6.1656 C       6      r6     0.0590
   2554 C           18.3285    15.5535     5.0390 C       5      r5     0.1506
   2555 O           18.1617    16.9605     5.0434 O       5      r5    -0.4616
   2556 C           16.8955    17.1648     4.4624 C       5      r5     0.1494
   2557 C           16.0579    15.9375     4.4870 C       6      r6     0.0014
   2558 C           17.0717    14.7468     4.8723 C       6      r6     0.0053
   2559 C           16.5188    18.3772     4.0056 C       0      r0     0.0347
   2560 C           14.0303    17.1251     5.6821 C       0      r0    -0.0117
   2561 C           17.2696    13.4326     7.0090 C       0      r0     0.0005
   2562 C          -17.7159    15.0458     5.1571 C       0      r0     0.0047
   2563 O           15.7706    15.8866     6.8525 O       5      r5    -0.4828
   2564 C           13.6179   -18.4636     2.1066 C       5      r5     0.2474
   2565 C           13.8514    17.9502     1.6816 C       5      r5     0.0213
   2566 C           14.9980    17.5059     2.3418 C       5      r5    -0.0137
   2567 C           15.3649    18.5601     3.1297 C       5      r5     0.1225
   2568 O           14.7035   -18.1034     3.1112 O       5      r5    -0.4688
   2569 O          -18.2776    12.5617     4.8299 O       5      r5    -0.4942
   2570 C          -17.3205    13.6544     5.0487 C       5      r5     0.1119
   2571 C          -15.9753    13.3506     5.2228 C       5      r5    -0.0371
   2572 C          -15.9360    11.9621     5.2451 C       5      r5    -0.0391
   2573 C          -17.2796    11.4505     5.0411 C       5      r5     0.1068
   2574 O           11.8546    15.8164     5.8382 O       5      r5    -0.4774
   2575 C           10.4235    16.2882     5.2325 C       5      r5     0.0886
   2576 C           10.6314    17.4813     4.4330 C       5      r5    -0.0198
   2577 C           11.9687    17.8251     4.5250 C       5      r5    -0.0049
   2578 C           12.5292    16.8898     5.3668 C       5      r5     0.1310
   2579 C           18.1722    14.1676     8.0862 C       0      r0     0.1928
   2580 C           17.4682    15.0535     8.9556 C       0      r0     0.0086
   2581 C           17.8999    15.6163    10.1763 C       0      r0    -0.0192
   2582 C          -18.3491    15.0821    10.9061 C       0      r0     0.1935
   2583 O          -18.0584    13.7406     8.3048 O       0      r0    -0.4930
   2584 C            9.3121    15.7086     5.4321 C       0      r0    -0.0457
   2585 C          -17.6037    10.1860     5.0217 C       0      r0    -0.0479
   2586 H           13.3279    14.5879     5.2937 H       0      r0     0.1089
   2587 H           14.8408    12.5284     5.6387 H       0      r0     0.1025
   2588 H           15.4986    15.6951     3.5885 H       0      r0     0.0316
   2589 H           17.3496    13.9557     4.2116 H       0      r0     0.0747
   2590 H           17.1363   -18.7583     4.4228 H       0      r0     0.1301
   2591 H           14.1034    17.5444     6.7410 H       0      r0     0.0804
   2592 H           14.4793    17.8861     5.0843 H       0      r0     0.0595
   2593 H           16.8359    12.6238     7.5028 H       0      r0     0.0634
   2594 H           17.9679    12.9078     6.2539 H       0      r0     0.1435
   2595 H          -16.9526    15.7762     5.2524 H       0      r0     0.0554
   2596 H           11.9361    17.4666     0.8332 H       0      r0     0.1061
   2597 H           15.5081    16.5645     2.2423 H       0      r0     0.0551
   2598 H          -15.1876    14.0198     5.3475 H       0      r0     0.0468
   2599 H          -15.1026    11.3656     5.4761 H       0      r0     0.0265
   2600 H            9.8264    18.0598     4.0505 H       0      r0     0.0538
   2601 H           12.3856    18.7768     4.1157 H       0      r0     0.1164
   2602 H           16.5505    15.3813     8.4987 H       0      r0     0.1072
   2603 H           17.2656    16.3908    10.4814 H       0      r0     0.0335
   2604 H            8.4720    16.0979     4.9384 H       0      r0     0.0396
   2605 H            9.2675    14.7473     5.9598 H       0      r0     0.0679
   2606 H          -16.9255     9.3038     5.1087 H       0      r0     0.0310
   2607 H           18.6205     9.9786     4.9408 H       0      r0     0.0852
   2608 C          -14.4180    16.5353     2.3044 C       6      r6    -0.0450
   2609 C          -15.1092    17.0040     1.1614 C       6      r6    -0.0252
   2610 C          -15.4166    18.3128     1.0213 C       6      r6    -0.0107
   2611 C          -15.0954   -18.5786     1.9220 C       6      r6    -0.0134
   2612 C          -13.4747   -18.0612     3.2127 C       5      r5     0.1256
   2613 O          -12.2837   -18.7541     2.8286 O       5      r5    -0.5016
   2614 C          -12.4086    17.8474     3.2211 C       5      r5     0.1472
   2615 C          -13.8655    17.4752     3.3425 C       6      r6    -0.0128
   2616 C          -14.6094   -18.8659     3.2295 C       6      r6    -0.0004
   2617 C          -11.3988    17.0447     3.5371 C       0      r0     0.0101
   2618 C          -14.4307    15.0614     2.5895 C       0      r0    -0.0308
   2619 C          -15.3254   -17.1093     1.4325 C       0      r0    -0.0339
   2620 C          -13.5083   -16.9401     4.0032 C       0      r0    -0.0166
   2621 O          -12.2027    17.6748    -0.2007 O       0      r0    -0.5646
   2622 C          -11.9520    13.8778     5.1724 C       5      r5     0.0939
   2623 C          -10.5847    13.6772     4.8220 C       5      r5    -0.0266
   2624 C          -10.3454    14.9591     4.2733 C       5      r5    -0.0173
   2625 C          -11.5228    15.7681     4.2626 C       5      r5     0.1420
   2626 O          -12.6289    15.3400     4.8795 O       5      r5    -0.4884
   2627 O          -16.0264   -16.7096     4.1013 O       5      r5    -0.4779
   2628 C          -14.7579   -16.2913     4.3598 C       5      r5     0.1195
   2629 C          -14.5919   -15.0579     5.0339 C       5      r5     0.0070
   2630 C          -15.8484   -14.5547     5.4673 C       5      r5    -0.0074
   2631 C          -16.7583   -15.5142     4.9394 C       5      r5     0.0976
   2632 O          -14.9248    13.0083     1.4784 O       0      r0    -0.4904
   2633 C          -12.9984    12.2526    -0.8099 C       0      r0     0.2155
   2634 C          -13.1209    13.7471    -0.7205 C       0      r0     0.0225
   2635 C          -13.4119    14.5606     0.4638 C       0      r0     0.0076
   2636 C          -14.2377    14.1653     1.4189 C       0      r0     0.1477
   2637 C          -16.7296   -16.9766     0.8540 C       3      r3     0.0050
   2638 C          -17.2956   -16.7664    -0.3091 C       3      r3     0.0003
   2639 C           18.0787   -16.2919     0.4887 C       0      r0     0.0298
   2640 C           17.2384   -17.5074     0.1728 C       0      r0     0.1150
   2641 O           17.8872   -18.7821    -0.5913 O       0      r0    -0.4531
   2642 C           16.0834   -17.5922     0.5225 C       0      r0    -0.0052
   2643 C          -12.4300    12.8611     5.7280 C       0      r0    -0.0350
   2644 H          -15.4344    16.2447     0.4894 H       0      r0     0.0717
   2645 H          -15.9312    18.6463     0.1468 H       0      r0     0.1469
   2646 H          -14.0957    16.9930     4.3392 H       0      r0     0.0765
   2647 H          -15.3632   -18.7534     3.9669 H       0      r0     0.0944
   2648 H          -10.4439    17.4381     3.4304 H       0      r0     0.0580
   2649 H          -13.5997    14.8177     3.2659 H       0      r0     0.1096
   2650 H          -15.3651    14.8870     3.1750 H       0      r0     0.0523
   2651 H          -14.9952   -16.3920     2.2491 H       0      r0     0.0902
   2652 H          -14.5245   -16.7247     0.7815 H       0      r0     0.0442
   2653 H          -12.6311   -16.4586     4.3843 H       0      r0     0.0490
   2654 H           -9.9108    12.8999     4.8453 H       0      r0     0.0600
   2655 H           -9.3357    15.2053     3.9346 H       0      r0     0.0751
   2656 H          -13.7034   -14.5503     5.3010 H       0      r0     0.1103
   2657 H          -16.1834   -13.5820     5.8252 H       0      r0     0.0762
   2658 H          -12.6171    14.2360    -1.6037 H       0      r0     0.1186
   2659 H          -13.1692    15.6414     0.6222 H       0      r0     0.0944
   2660 H          -17.0453   -16.7875    -1.3314 H       0      r0     0.0796
   2661 H           14.7125   -14.5959     1.1734 H       0      r0     0.3570
   2662 H           15.6962   -16.7235     1.0884 H       0      r0     0.1008
   2663 H           15.3993   -18.4662     0.2896 H       0      r0     0.0613
   2664 H          -11.9173    11.9273     5.8837 H       0      r0     0.0938
   2665 H          -13.4511    12.9249     6.0083 H       0      r0     0.0458
   2666 C           13.2866   -13.9216     2.3272 C       6      r6     0.1140
   2667 C           12.0854   -13.0247     2.3677 C       6      r6     0.0102
   2668 C           11.2957   -12.4840     3.2968 C       6      r6    -0.0025
   2669 C           11.9907   -12.6174     4.4957 C       6      r6    -0.0091
   2670 C           14.1089   -11.3621     4.7948 C       5      r5     0.1354
   2671 O           14.4328   -10.8940     3.4859 O       5      r5    -0.4692
   2672 C           14.8744   -12.0394     2.8081 C       5      r5     0.1680
   2673 C           14.2345   -13.3453     3.3514 C       6      r6     0.0018
   2674 C           13.5415   -12.8092     4.6889 C       6      r6    -0.0130
   2675 C           15.8604   -12.0051     1.8524 C       0      r0     0.0203
   2676 C           12.8906   -15.3364     2.9383 C       0      r0     0.0032
   2677 C           11.2763   -12.3084     5.7279 C       0      r0     0.0015
   2678 C           14.1694   -10.6792     5.9381 C       0      r0     0.0029
   2679 O           13.9109   -14.0624     1.0174 O       0      r0    -0.5840
   2680 C           17.6573   -14.9453     0.7732 C       5      r5     0.1228
   2681 C           18.3417   -13.8452     0.1834 C       5      r5    -0.0320
   2682 C           17.6756   -12.6691     0.5133 C       5      r5    -0.0426
   2683 C           16.5598   -13.0934     1.2252 C       5      r5     0.1234
   2684 O           16.3373   -14.5748     1.3700 O       5      r5    -0.5102
   2685 O           13.4237   -12.2889     7.6634 O       0      r0    -0.6007
   2686 C           13.9198   -11.0693     7.3149 C       0      r0     0.1377
   2687 C           14.2138    -9.9922     7.9885 C       0      r0    -0.0216
   2688 C           13.8696    -9.8903     9.5071 C       0      r0    -0.0195
   2689 C           13.4817   -10.8544    10.3263 C       0      r0     0.1560
   2690 O           12.2730   -17.5763     2.2455 O       0      r0    -0.4667
   2691 C           11.1176   -18.1086    -0.1115 C       0      r0     0.1565
   2692 C           11.7166   -16.8966    -0.4360 C       0      r0    -0.0090
   2693 C           12.1416   -15.8993     0.5858 C       0      r0     0.0115
   2694 C           12.4669   -16.3228     1.8303 C       0      r0     0.1656
   2695 C            9.9208   -12.1091     5.6874 C       5      r5     0.1530
   2696 C            9.6488   -11.6330     7.0321 C       5      r5     0.0043
   2697 C            8.2593   -11.5689     6.9302 C       5      r5    -0.0037
   2698 C            7.7923   -11.8686     5.5707 C       5      r5     0.1030
   2699 O            9.0246   -12.2618     4.6397 O       5      r5    -0.4762
   2700 C            6.6209   -11.8734     5.2586 C       0      r0    -0.0280
   2701 C          -17.8476   -16.0782     0.8627 C       3      r3    -0.0024
   2702 H           11.6656   -12.9708     1.4089 H       0      r0     0.1238
   2703 H           10.3264   -12.0375     3.0425 H       0      r0     0.1328
   2704 H           15.2112   -13.8248     3.5124 H       0      r0     0.0624
   2705 H           13.7218   -13.3606     5.6246 H       0      r0     0.0811
   2706 H           16.0269   -10.9850     1.5869 H       0      r0     0.0722
   2707 H           13.7647   -15.7518     3.3979 H       0      r0     0.1023
   2708 H           12.1850   -15.2071     3.7485 H       0      r0     0.0933
   2709 H           11.7756   -12.3147     6.6902 H       0      r0     0.1204
   2710 H           13.7841   -12.5667     8.5364 H       0      r0     0.3554
   2711 H           14.4812    -9.6854     5.6081 H       0      r0     0.0643
   2712 H          -18.0477   -13.9038    -0.4429 H       0      r0     0.0371
   2713 H           17.8776   -11.6548     0.1998 H       0      r0     0.0301
   2714 H           14.5519    -9.0785     7.5520 H       0      r0     0.0725
   2715 H           14.0744    -8.9525    10.0060 H       0      r0     0.0609
   2716 H           11.9058   -16.8144    -1.5239 H       0      r0     0.0597
   2717 H           12.2153   -14.8756     0.3246 H       0      r0     0.1149
   2718 H           10.2903   -11.4619     7.8622 H       0      r0     0.0788
   2719 H            7.6024   -11.2031     7.6970 H       0      r0     0.0679
   2720 H            5.8036   -11.6195     5.9585 H       0      r0     0.0889
   2721 H            6.3242   -12.0094     4.1977 H       0      r0     0.0640
   2722 H          -12.3325    18.3120     0.5575 H       0      r0     0.2965
   2723 H           13.9401    13.0387    -3.0214 H       0      r0     0.2976
   2724 C          -15.3307   -12.3321   -17.8769 C       0      r0     0.1819
   2725 C          -14.5093   -13.2767   -18.7095 C       0      r0    -0.0294
   2726 C          -14.0980   -12.9419    17.6450 C       0      r0    -0.0341
   2727 C          -14.3044   -11.7333    16.8383 C       0      r0     0.1827
   2728 C          -13.8700   -12.0580    15.3498 C       0      r0    -0.0048
   2729 O          -14.8241   -10.7344    17.1093 O       0      r0    -0.4786
   2730 O          -15.3899   -12.1519   -16.7337 O       0      r0    -0.5038
   2731 C          -14.8037   -13.0897    14.7137 C       5      r5     0.1381
   2732 C          -16.1650   -12.7946    14.8586 C       5      r5    -0.0176
   2733 C          -16.8114   -13.8727    14.2844 C       5      r5    -0.0285
   2734 C          -15.8202   -14.7462    13.6842 C       5      r5     0.0886
   2735 O          -14.3610   -14.1529    14.0194 O       5      r5    -0.4674
   2736 C          -16.1341   -15.8390    13.1094 C       0      r0    -0.0291
   2737 C          -16.6129   -11.8751   -18.6316 C       0      r0     0.0301
   2738 C           18.3941   -14.9739   -15.6505 C       0      r0     0.1576
   2739 C           18.4594   -14.4563   -16.8828 C       0      r0    -0.0069
   2740 C          -17.7274   -13.5124   -17.3497 C       0      r0    -0.0053
   2741 C          -17.7397   -12.8546   -18.4537 C       0      r0     0.1338
   2742 O           18.5752   -12.7655    18.1563 O       0      r0    -0.4946
   2743 H          -14.2022   -14.2047   -18.3476 H       0      r0     0.0924
   2744 H          -13.5515   -13.7011    17.1039 H       0      r0     0.0511
   2745 H          -13.7991   -11.1595    14.7499 H       0      r0     0.0688
   2746 H          -12.8125   -12.2954    15.3165 H       0      r0     0.0514
   2747 H          -16.5990   -12.0006    15.4242 H       0      r0     0.0650
   2748 H          -17.8857   -13.9347    14.2215 H       0      r0     0.0549
   2749 H          -17.1931   -16.0630    13.0919 H       0      r0     0.0400
   2750 H          -15.4547   -16.5400    12.7230 H       0      r0     0.1438
   2751 H          -16.7612   -10.7512   -18.5227 H       0      r0     0.1546
   2752 H          -16.3874   -11.6472    17.8293 H       0      r0     0.1087
   2753 H           17.6660   -14.6701   -17.5919 H       0      r0     0.0830
   2754 H          -16.9791   -13.3698   -16.6367 H       0      r0     0.1080
   2755 C           12.5195   -10.1906    16.2594 C       0      r0     0.1649
   2756 C           12.5580    -9.6871    14.8940 C       0      r0    -0.0347
   2757 C           11.6559    -9.9902    13.9515 C       0      r0     0.0146
   2758 C           10.6199   -11.0714    13.9735 C       0      r0     0.2089
   2759 C           10.9036   -12.4823    14.6554 C       0      r0     0.0250
   2760 O            9.6328   -11.0027    13.3742 O       0      r0    -0.4448
   2761 O           11.8397   -11.0127    16.7136 O       0      r0    -0.4959
   2762 C           10.5362   -13.6118    13.7780 C       5      r5     0.1508
   2763 C           10.1467   -13.4972    12.4874 C       5      r5     0.0203
   2764 C           10.0752   -14.8007    12.0023 C       5      r5    -0.0185
   2765 C           10.4061   -15.8364    12.9944 C       5      r5     0.0953
   2766 O           10.7613   -14.9130    14.2878 O       5      r5    -0.4743
   2767 C           10.4162   -17.0392    12.8970 C       0      r0    -0.0315
   2768 C           13.6557    -9.4139    17.1986 C       0      r0    -0.0228
   2769 C           17.1658   -12.1495    18.0983 C       0      r0     0.1321
   2770 C           15.9560   -12.1461    18.6816 C       0      r0    -0.0181
   2771 C           14.8447   -11.1852    18.2173 C       0      r0    -0.0214
   2772 C           14.9775   -10.1087    17.4477 C       0      r0     0.1313
   2773 O           16.1619    -9.5536    16.9238 O       0      r0    -0.4858
   2774 H           13.3350    -8.9463    14.8074 H       0      r0     0.0353
   2775 H           11.7160    -9.2833    13.0860 H       0      r0     0.0820
   2776 H           11.9585   -12.3782    14.9754 H       0      r0     0.0745
   2777 H           10.6089   -12.6290    15.7030 H       0      r0     0.0926
   2778 H            9.9973   -12.5811    11.8677 H       0      r0     0.1149
   2779 H            9.7489   -15.0563    10.9942 H       0      r0     0.0544
   2780 H           10.1417   -17.6360    11.9830 H       0      r0     0.0923
   2781 H           10.7482   -17.7133    13.7078 H       0      r0     0.0650
   2782 H           14.0138    -8.4257    16.7753 H       0      r0     0.0546
   2783 H           13.0613    -9.3471    18.1243 H       0      r0     0.0666
   2784 H           15.7370   -12.8855   -18.0538 H       0      r0     0.1065
   2785 H           13.8078   -11.2807    18.6106 H       0      r0     0.0573
   2786 C          -15.6089    -8.0578    -6.2717 C       5      r5     0.1349
   2787 O          -16.7703    -7.4150    -5.8252 O       5      r5    -0.4932
   2788 C          -16.7845    -8.1679    -4.4213 C       5      r5     0.0735
   2789 C          -15.7450    -9.0321    -4.2004 C       5      r5    -0.0360
   2790 C          -14.9458    -8.9416    -5.3603 C       5      r5     0.0013
   2791 C          -15.1689    -7.9149    -7.6066 C       0      r0    -0.0036
   2792 C          -18.2461    -8.2615    -2.3856 C       5      r5     0.1090
   2793 O           17.9922    -7.6370    -1.7089 O       5      r5    -0.4669
   2794 C           18.0471    -8.5502    -0.3825 C       5      r5     0.0752
   2795 C          -18.2976    -9.5471    -0.4592 C       5      r5    -0.0450
   2796 C          -17.6291    -9.3207    -1.6945 C       5      r5    -0.0370
   2797 C          -17.9416    -7.8174    -3.6782 C       0      r0     0.0007
   2798 C          -13.9411    -8.4934    -8.0333 C       5      r5     0.1398
   2799 C          -13.5492    -8.1341    -9.3191 C       5      r5    -0.0204
   2800 C          -12.3128    -8.7580    -9.6955 C       5      r5    -0.0260
   2801 C          -12.0082    -9.3542    -8.4458 C       5      r5     0.1245
   2802 O          -13.0976    -9.2819    -7.2809 O       5      r5    -0.4580
   2803 C          -10.8521    -9.9279    -8.4999 C       0      r0    -0.0103
   2804 H          -15.5519    -9.6088    -3.3188 H       0      r0     0.1083
   2805 H          -14.1621    -9.5980    -5.5445 H       0      r0     0.1300
   2806 H          -15.7432    -7.3473    -8.2911 H       0      r0     0.0406
   2807 H          -18.0118   -10.2523     0.2804 H       0      r0     0.0439
   2808 H          -16.7944    -9.9639    -2.1222 H       0      r0     0.0902
   2809 H          -18.5134    -7.0035    -4.1354 H       0      r0     0.0946
   2810 H          -14.0787    -7.4600    -9.9552 H       0      r0     0.0386
   2811 H          -11.7658    -8.7750   -10.6376 H       0      r0     0.0422
   2812 H          -10.1802    -9.9202    -9.3069 H       0      r0     0.0590
   2813 H          -10.5130   -10.5303    -7.6961 H       0      r0     0.0754
   2814 C           -8.1771   -10.1375   -10.8500 C       5      r5     0.1263
   2815 O           -7.5642   -10.5207    -9.5257 O       5      r5    -0.4713
   2816 C           -8.4697   -11.5291    -9.2119 C       5      r5     0.1176
   2817 C           -9.3495   -11.8611   -10.2627 C       5      r5    -0.0364
   2818 C           -9.1615   -10.9589   -11.3512 C       5      r5    -0.0086
   2819 C           -7.7011    -9.0646   -11.5911 C       0      r0     0.0086
   2820 C           -9.4758   -12.9774    -7.4193 C       5      r5     0.1242
   2821 O           -9.3044   -13.6192    -6.1505 O       5      r5    -0.4630
   2822 C          -10.5786   -14.4033    -6.1876 C       5      r5     0.1186
   2823 C          -11.3353   -14.3472    -7.3402 C       5      r5    -0.0103
   2824 C          -10.6474   -13.3697    -8.1021 C       5      r5    -0.0163
   2825 C           -8.4769   -12.1346    -7.9288 C       0      r0    -0.0014
   2826 C           -8.1953    -8.8934   -12.9520 C       5      r5     0.1454
   2827 C           -7.5073    -7.7524   -13.3458 C       5      r5    -0.0195
   2828 C           -7.9576    -7.6926   -14.7261 C       5      r5    -0.0133
   2829 C           -8.9350    -8.6780   -14.9540 C       5      r5     0.1193
   2830 O           -9.0712    -9.6535   -13.7241 O       5      r5    -0.4748
   2831 C           -9.4134    -8.5726   -16.0774 C       0      r0    -0.0134
   2832 H           -9.9938   -12.6699   -10.2076 H       0      r0     0.0297
   2833 H           -9.6863   -10.8069   -12.3224 H       0      r0     0.1125
   2834 H           -7.0676    -8.3427   -11.1088 H       0      r0     0.0587
   2835 H          -12.2402   -14.8611    -7.6365 H       0      r0     0.0882
   2836 H          -10.9341   -12.9642    -9.0770 H       0      r0     0.0358
   2837 H           -7.6832   -11.7777    -7.2970 H       0      r0     0.0737
   2838 H           -6.7802    -7.0827   -12.8634 H       0      r0     0.0555
   2839 H           -7.6809    -6.9562   -15.4058 H       0      r0     0.0531
   2840 H           -9.2154    -7.8011   -16.8228 H       0      r0     0.0769
   2841 H          -10.1942    -9.3219   -16.4480 H       0      r0     0.0585
   2842 C            9.5252     0.7812     6.3763 C       0      r0     0.0966
   2843 O            9.6350    -0.7568     5.6300 O       0      r0    -0.4426
   2844 C            9.8675     0.0273     4.2268 C       0      r0     0.1174
   2845 C            9.7817     1.5134     4.1661 C       0      r0    -0.0216
   2846 C            9.5396     1.9535     5.4867 C       0      r0    -0.0415
   2847 C            9.4612     0.9656     7.6798 C       0      r0     0.0197
   2848 C           10.0974    -0.5007     3.0446 C       0      r0     0.0010
   2849 H            9.7721     2.2203     3.2977 H       0      r0     0.1249
   2850 H            9.3981     2.9647     5.8562 H       0      r0     0.0620
   2851 H            9.3828     1.4275     8.6553 H       0      r0     0.1294
   2852 H           10.3067    -0.8431     2.0844 H       0      r0     0.0745
   2853 C           10.2335     4.2828     0.9157 C       5      r5     0.0980
   2854 O            9.3647     3.1734     1.6791 O       5      r5    -0.4707
   2855 C            8.1871     3.5614     1.1017 C       5      r5     0.1332
   2856 C            8.2273     4.6577     0.1731 C       5      r5    -0.0408
   2857 C            9.5016     5.1453     0.1203 C       5      r5    -0.0436
   2858 C           11.5709     4.4875     1.0839 C       0      r0    -0.0244
   2859 C            6.8887     3.0731     1.2516 C       0      r0    -0.0166
   2860 H            7.3567     5.0146    -0.3319 H       0      r0     0.0413
   2861 H            9.8613     5.9979    -0.3865 H       0      r0     0.0376
   2862 H           12.4919     4.2528     1.5785 H       0      r0     0.0581
   2863 H            6.0926     3.4918     0.6205 H       0      r0     0.0991
   2864 C           10.6890     0.6644    10.7919 C       5      r5     0.1355
   2865 O           10.5551     1.9982    10.1499 O       5      r5    -0.4840
   2866 C           11.8980     1.9856     9.4717 C       5      r5     0.1113
   2867 C           12.5055     0.6856     9.5819 C       5      r5    -0.0258
   2868 C           11.8096    -0.0614    10.5151 C       5      r5    -0.0151
   2869 C            9.6201     0.1332    11.6444 C       0      r0     0.0307
   2870 C           12.5251     2.9997     8.7849 C       0      r0    -0.0413
   2871 H           13.4278     0.3997     9.0754 H       0      r0     0.0497
   2872 H           12.0135    -1.0271    10.9539 H       0      r0     0.0682
   2873 H            9.7493    -0.8530    12.1710 H       0      r0     0.1217
   2874 H           13.3257     3.4743     8.2606 H       0      r0     0.0362
   2875 C            3.4118    -4.2205    -1.9505 C       0      r0     0.1099
   2876 O            3.0589    -5.0238    -3.3925 O       0      r0    -0.4691
   2877 C            1.3521    -4.5665    -3.2824 C       0      r0     0.1043
   2878 C            1.2813    -3.5757    -2.1932 C       0      r0    -0.0011
   2879 C            2.3692    -3.4244    -1.3849 C       0      r0    -0.0040
   2880 C            4.6085    -4.3078    -1.3733 C       0      r0     0.0101
   2881 C            0.5259    -5.1197    -3.9524 C       0      r0     0.1246
   2882 H            0.3279    -3.0885    -1.9600 H       0      r0     0.0727
   2883 H            2.5002    -2.6837    -0.5762 H       0      r0     0.0881
   2884 H            5.3885    -4.1943    -0.6324 H       0      r0     0.0771
   2885 H            0.7565    -5.9108    -4.6903 H       0      r0     0.1044
   2886 C            2.6936    12.3910     0.7147 C       6      r6    -0.0074
   2887 C            1.4756    11.5479     0.4911 C       6      r6    -0.0360
   2888 C            0.2911    11.9677     0.9739 C       6      r6    -0.0383
   2889 C            0.3210    13.3149     1.6827 C       6      r6     0.1154
   2890 C            1.7580    14.1060     3.6628 C       5      r5     0.1518
   2891 O            2.8229    14.8270     3.1176 O       5      r5    -0.5026
   2892 C            3.6040    13.8970     2.4580 C       5      r5     0.1546
   2893 C            2.8360    12.7045     2.1406 C       6      r6     0.0049
   2894 C            1.3794    12.9366     2.8135 C       6      r6     0.0016
   2895 C            5.0016    13.9776     2.2936 C       0      r0     0.0026
   2896 C            3.5026    12.9741    -0.2788 C       0      r0     0.0112
   2897 C           -1.0854    13.5554     2.4177 C       0      r0     0.0012
   2898 C            1.1422    14.3904     4.8727 C       0      r0     0.0247
   2899 O            0.7402    14.4270     0.9218 O       0      r0    -0.5892
   2900 C            8.1658    11.7981     0.2763 C       0      r0    -0.0048
   2901 C            8.2641    12.7824     1.2265 C       0      r0    -0.0273
   2902 C            7.0899    13.5071     1.7816 C       0      r0    -0.0357
   2903 C            5.8479    12.9422     1.7473 C       0      r0     0.1248
   2904 O            5.4819    11.6512     1.3754 O       0      r0    -0.5566
   2905 O           -0.4956    12.5690     4.7955 O       5      r5    -0.4912
   2906 C            0.0488    13.6581     5.4173 C       5      r5     0.1519
   2907 C           -0.5115    14.0759     6.6242 C       5      r5     0.0178
   2908 C           -1.6454    13.3012     6.9877 C       5      r5    -0.0047
   2909 C           -1.6021    12.3562     5.9081 C       5      r5     0.1184
   2910 O            4.3225    13.4977    -2.4562 O       5      r5    -0.4824
   2911 C            3.7591    12.7959    -3.7821 C       5      r5     0.1051
   2912 C            2.6831    11.8511    -3.6653 C       5      r5    -0.0084
   2913 C            2.4993    11.9051    -2.2728 C       5      r5     0.0051
   2914 C            3.4100    12.7972    -1.6519 C       5      r5     0.1404
   2915 C           -2.1500    14.3004     1.5172 C       5      r5     0.1533
   2916 C           -1.9947    14.2350     0.1086 C       5      r5    -0.0182
   2917 C           -3.1100    14.7317    -0.4122 C       5      r5    -0.0355
   2918 C           -3.8615    15.3793     0.6949 C       5      r5     0.0762
   2919 O           -3.1181    14.9358     2.1241 O       5      r5    -0.4719
   2920 C            4.1232    12.8743    -5.0051 C       0      r0    -0.0440
   2921 C           -2.5445    11.5055     6.0614 C       0      r0    -0.0089
   2922 H            1.6002    10.6862    -0.0461 H       0      r0     0.0850
   2923 H           -0.6814    11.4222     0.8960 H       0      r0     0.0324
   2924 H            3.3226    11.8413     2.6358 H       0      r0     0.0839
   2925 H            0.8863    12.2078     3.4313 H       0      r0     0.0979
   2926 H            5.5544    14.8670     2.4771 H       0      r0     0.0555
   2927 H            5.9179    11.4878     0.5313 H       0      r0     0.2763
   2928 H            4.2795    13.6290    -0.0049 H       0      r0     0.0830
   2929 H           -1.4102    12.5718     2.7070 H       0      r0     0.0720
   2930 H           -0.8776    14.1822     3.2853 H       0      r0     0.0945
   2931 H            1.6406    15.1980     5.3979 H       0      r0     0.0976
   2932 H            9.2467    13.1505     1.3782 H       0      r0     0.0627
   2933 H            7.2889    14.4707     2.2272 H       0      r0     0.0345
   2934 H           -0.2485    15.0174     7.1440 H       0      r0     0.0803
   2935 H           -2.3402    13.4086     7.8196 H       0      r0     0.0989
   2936 H            2.1406    11.2231    -4.4010 H       0      r0     0.0592
   2937 H            1.8198    11.2107    -1.8171 H       0      r0     0.1021
   2938 H           -1.1664    13.8161    -0.4113 H       0      r0     0.0728
   2939 H           -3.4041    14.7403    -1.5201 H       0      r0     0.0880
   2940 H            3.6937    12.1565    -5.7381 H       0      r0     0.0594
   2941 H            4.8755    13.5952    -5.3208 H       0      r0     0.0419
   2942 H           -3.2220    11.5306     6.9153 H       0      r0     0.1081
   2943 H           -2.5945    10.6569     5.3993 H       0      r0     0.0969
   2944 C           -6.7669    18.8317     3.5450 C       6      r6     0.0766
   2945 C           -7.7043    17.8743     4.2642 C       6      r6    -0.0311
   2946 C           -7.6342    17.5725     5.5596 C       6      r6    -0.0380
   2947 C           -6.6959    18.5047     6.0669 C       6      r6    -0.0049
   2948 C           -4.4080   -18.3062     5.9686 C       5      r5     0.1491
   2949 O           -3.8806   -17.6226     4.8127 O       5      r5    -0.4771
   2950 C           -4.2877   -18.3276     3.7495 C       5      r5     0.1555
   2951 C           -5.3399    18.5097     3.9614 C       6      r6    -0.0058
   2952 C           -5.2779    18.5034     5.5543 C       6      r6     0.0117
   2953 C           -3.8448   -17.9480     2.4631 C       0      r0     0.0210
   2954 C           -6.8857    18.5335     2.0424 C       0      r0    -0.0146
   2955 C           -7.0176   -18.7285     7.3848 C       0      r0     0.0077
   2956 C           -4.0688   -18.0212     7.2545 C       0      r0    -0.0014
   2957 O           -7.0611   -17.4663     3.8670 O       0      r0    -0.4849
   2958 C           -4.3253    17.2338    -0.9119 C       0      r0     0.0149
   2959 C           -4.0498    16.9175     0.4203 C       0      r0     0.0113
   2960 C           -4.0386    17.8600     1.5143 C       0      r0    -0.0055
   2961 C           -3.9168   -18.7434     1.3356 C       0      r0     0.1255
   2962 O           -3.7033   -18.1051    -0.0076 O       0      r0    -0.4643
   2963 O           -4.9197    17.8801     8.4196 O       5      r5    -0.4834
   2964 C           -4.4273   -18.7842     8.4205 C       5      r5     0.1286
   2965 C           -4.2042   -18.0824     9.6146 C       5      r5    -0.0303
   2966 C           -4.5794   -18.8126    10.7449 C       5      r5    -0.0278
   2967 C           -5.0058    17.9209    10.0997 C       5      r5     0.0890
   2968 O           -7.9526   -18.1822     0.1359 O       5      r5    -0.4709
   2969 C           -9.5084   -17.4580     0.0323 C       5      r5     0.0731
   2970 C          -10.0647   -17.7451     1.3529 C       5      r5    -0.0099
   2971 C           -9.1089   -18.2509     2.2136 C       5      r5     0.0053
   2972 C           -8.0173   -18.5403     1.4063 C       5      r5     0.1631
   2973 C           -8.4326   -18.4366     7.4882 C       0      r0     0.1667
   2974 C           -8.8904   -17.8820     6.3920 C       0      r0     0.0105
   2975 C          -10.2540   -17.2652     6.3970 C       0      r0    -0.0144
   2976 C          -11.1722   -17.2501     7.4522 C       0      r0     0.0233
   2977 O           -9.0730   -18.7037     8.6660 O       0      r0    -0.4705
   2978 C          -10.0965   -16.8811    -0.8897 C       0      r0    -0.0393
   2979 C           -5.3575    17.0827    10.9680 C       0      r0    -0.0450
   2980 H           -8.4477    17.3503     3.7065 H       0      r0     0.0689
   2981 H           -8.3866    17.0359     6.2285 H       0      r0     0.0913
   2982 H           -5.0519    17.5977     3.4298 H       0      r0     0.0336
   2983 H           -4.9187    17.5474     5.9814 H       0      r0     0.0741
   2984 H           -3.6537   -16.9082     2.3777 H       0      r0     0.0956
   2985 H           -6.0023    18.7200     1.4680 H       0      r0     0.0681
   2986 H           -6.9493    17.4780     1.7407 H       0      r0     0.0950
   2987 H           -6.7156    18.6207     8.2480 H       0      r0     0.1461
   2988 H           -6.4338   -17.7884     7.5925 H       0      r0     0.0652
   2989 H           -3.5505   -17.0341     7.1647 H       0      r0     0.0669
   2990 H           -4.9552    15.2438     0.6964 H       0      r0     0.0786
   2991 H           -3.9155    17.3936     2.4978 H       0      r0     0.0646
   2992 H           -3.8105   -17.1030     9.6854 H       0      r0     0.0389
   2993 H           -4.6020   -18.4910    11.7844 H       0      r0     0.0795
   2994 H          -11.1025   -17.5094     1.6047 H       0      r0     0.0900
   2995 H           -9.1878   -18.5538     3.2590 H       0      r0     0.0714
   2996 H           -8.2431   -17.7440     5.4836 H       0      r0     0.1235
   2997 H          -10.5254   -16.5565     5.6393 H       0      r0     0.0579
   2998 H          -11.0693   -16.4979    -0.8456 H       0      r0     0.0693
   2999 H           -9.4516   -16.8567    -1.7123 H       0      r0     0.0680
   3000 H           -5.2815    17.4363    12.0454 H       0      r0     0.0446
   3001 H           -5.7893    16.1488    10.7090 H       0      r0     0.0589
   3002 C            2.4279    18.0811     5.9840 C       6      r6    -0.0150
   3003 C            3.0921    17.7090     4.8187 C       6      r6    -0.0332
   3004 C            3.6362    18.8233     4.3036 C       6      r6    -0.0175
   3005 C            3.7629   -17.7466     4.9832 C       6      r6     0.1215
   3006 C            2.2051   -16.3149     6.4784 C       5      r5     0.1392
   3007 O            2.0334   -16.9526     7.7531 O       5      r5    -0.4977
   3008 C            1.3294   -18.0874     7.4673 C       5      r5     0.1466
   3009 C            1.6705   -18.5418     6.0989 C       6      r6    -0.0016
   3010 C            2.2686   -17.3352     5.3568 C       6      r6    -0.0020
   3011 C            0.5141   -18.7795     8.3137 C       0      r0     0.0066
   3012 C            2.3223    17.0647     7.1130 C       0      r0    -0.0168
   3013 C            4.3100   -16.7460     3.9186 C       0      r0    -0.0144
   3014 C            2.1133   -14.9915     6.3205 C       0      r0     0.0043
   3015 O            4.5142   -17.6806     6.1995 O       0      r0    -0.5663
   3016 C           -1.5617    16.7986     6.6139 C       5      r5     0.1031
   3017 C           -1.9784    16.6922     7.9826 C       5      r5    -0.0173
   3018 C           -1.1909    17.5036     8.7835 C       5      r5    -0.0285
   3019 C           -0.3101    18.0715     7.8485 C       5      r5     0.1123
   3020 O           -0.3381    17.6591     6.4880 O       5      r5    -0.4913
   3021 O            1.9855   -14.9442     3.8377 O       5      r5    -0.4843
   3022 C            2.0488   -14.3280     5.0684 C       5      r5     0.1252
   3023 C            1.9439   -12.9391     5.1681 C       5      r5    -0.0085
   3024 C            1.7000   -12.3931     3.8458 C       5      r5    -0.0089
   3025 C            1.6660   -13.5542     3.0588 C       5      r5     0.1029
   3026 O            3.4637    14.9685     6.7790 O       0      r0    -0.5076
   3027 C            6.2432    14.8184     6.9476 C       0      r0     0.1747
   3028 C            6.0649    16.1146     7.2657 C       0      r0    -0.0205
   3029 C            4.7874    16.8083     7.2828 C       0      r0    -0.0046
   3030 C            3.6237    16.1438     7.0143 C       0      r0     0.1802
   3031 C            4.1528   -17.3133     2.4433 C       6      r6     0.0734
   3032 C            2.9508   -16.8835     1.6747 C       6      r6     0.0034
   3033 C            4.4910   -16.9159     0.2234 C       6      r6     0.0012
   3034 C            5.2187   -18.2078     0.5642 C       6      r6     0.1221
   3035 O            5.1263   -18.5689     1.9221 O       6      r6    -0.4763
   3036 C            5.9179   -18.7789    -0.3676 C       0      r0    -0.0428
   3037 C           -2.1964    16.0396     5.7577 C       0      r0    -0.0479
   3038 H            3.2839    16.7146     4.4729 H       0      r0     0.1106
   3039 H            4.1845    18.8129     3.3522 H       0      r0     0.1339
   3040 H            0.7609   -18.8708     5.5786 H       0      r0     0.0986
   3041 H            1.8147   -17.0109     4.4108 H       0      r0     0.0808
   3042 H            0.5067   -18.4782     9.4035 H       0      r0     0.0919
   3043 H            2.0947    17.4983     8.0862 H       0      r0     0.0478
   3044 H            1.3790    16.4778     7.1551 H       0      r0     0.0921
   3045 H            3.6896   -15.8308     3.9712 H       0      r0     0.1026
   3046 H            5.3355   -16.4307     4.0718 H       0      r0     0.0640
   3047 H            1.9535   -14.3324     7.1545 H       0      r0     0.0602
   3048 H           -2.8898    16.1206     8.2656 H       0      r0     0.0600
   3049 H           -1.2585    17.6612     9.8428 H       0      r0     0.0432
   3050 H            2.0644   -12.3273     6.0442 H       0      r0     0.0982
   3051 H            1.5885   -11.3697     3.5116 H       0      r0     0.0892
   3052 H            6.9779    16.6229     7.4802 H       0      r0     0.0328
   3053 H            4.6135    17.8463     7.5248 H       0      r0     0.0632
   3054 H            2.2619   -17.3278     1.0533 H       0      r0     0.1286
   3055 H            2.4113   -14.5919    -1.4454 H       0      r0     0.3502
   3056 H            6.0326   -18.3671    -1.3975 H       0      r0     0.0418
   3057 H            6.4714    18.2803    -0.1334 H       0      r0     0.0553
   3058 H           -2.9700    15.3536     6.0214 H       0      r0     0.0386
   3059 H           -1.9400    16.1634     4.7571 H       0      r0     0.0727
   3060 C            0.8458   -13.3138    -1.3338 C       6      r6     0.1313
   3061 C           -0.2789   -12.6903    -2.0801 C       6      r6    -0.0041
   3062 C           -0.8944   -11.5147    -1.6925 C       6      r6    -0.0093
   3063 C           -0.4126   -10.9359    -0.5003 C       6      r6    -0.0296
   3064 C            1.6895    -9.8233    -1.2021 C       5      r5     0.1472
   3065 O            2.5517   -10.3253    -2.1145 O       5      r5    -0.5075
   3066 C            2.7898   -11.6779    -1.7105 C       5      r5     0.1522
   3067 C            1.8497   -12.2569    -0.7405 C       6      r6    -0.0004
   3068 C            1.0745   -10.8633    -0.3074 C       6      r6    -0.0136
   3069 C            3.8492   -12.4325    -2.2272 C       0      r0     0.0248
   3070 C            0.1231   -13.8786     0.0711 C       0      r0    -0.0056
   3071 C           -1.3338   -10.2887     0.3716 C       0      r0    -0.0043
   3072 C            1.5131    -8.4631    -1.0001 C       0      r0     0.0073
   3073 O            1.4752   -14.3797    -1.9799 O       0      r0    -0.5818
   3074 C            4.5764   -15.6649    -0.5310 C       5      r5     0.1083
   3075 C            5.4071   -15.5144    -1.6105 C       5      r5    -0.0203
   3076 C            5.3418   -14.3086    -2.3436 C       5      r5    -0.0233
   3077 C            4.3249   -13.6482    -1.7904 C       5      r5     0.0976
   3078 O            3.6365   -14.4282    -0.5899 O       5      r5    -0.5203
   3079 O            0.6215    -8.5126     1.3763 O       0      r0    -0.5765
   3080 C            0.9071    -7.9200     0.1734 C       0      r0     0.1421
   3081 C            0.7198    -6.6199    -0.1650 C       0      r0    -0.0261
   3082 C           -0.2675    -5.8054     0.5937 C       0      r0    -0.0374
   3083 C           -1.1335    -6.2873     1.5806 C       0      r0    -0.0201
   3084 O           -0.9372   -15.8500     1.2382 O       0      r0    -0.4848
   3085 C           -2.6847   -17.3337    -0.5989 C       0      r0     0.2062
   3086 C           -1.8784   -16.7911    -1.5773 C       0      r0     0.0141
   3087 C           -0.9527   -15.5800    -1.2862 C       0      r0     0.0134
   3088 C           -0.6363   -15.1721    -0.0759 C       0      r0     0.1532
   3089 C           -2.6995   -10.4522     0.2199 C       5      r5     0.1368
   3090 C           -3.4731    -9.7372     1.1968 C       5      r5    -0.0189
   3091 C           -4.8402    -9.8986     1.0296 C       5      r5    -0.0412
   3092 C           -4.7993   -10.8363    -0.0956 C       5      r5     0.1029
   3093 O           -3.3486   -11.2592    -0.6485 O       5      r5    -0.4461
   3094 C           -5.9648   -11.1086    -0.4494 C       0      r0    -0.0377
   3095 C            4.1189   -16.3094     1.3882 C       6      r6     0.0113
   3096 H           -0.4883   -13.0983    -3.0630 H       0      r0     0.0921
   3097 H           -1.8309   -11.3649    -2.2416 H       0      r0     0.1504
   3098 H            2.4266   -12.8671     0.0148 H       0      r0     0.0891
   3099 H            1.2206   -10.6145     0.7410 H       0      r0     0.0991
   3100 H            4.4426   -11.8696    -2.9498 H       0      r0     0.0879
   3101 H            0.8186   -14.2024     0.8332 H       0      r0     0.0870
   3102 H           -0.4534   -13.0912     0.6186 H       0      r0     0.0544
   3103 H            0.5254    -7.7921     2.0608 H       0      r0     0.2867
   3104 H           -1.0381    -9.6712     1.2420 H       0      r0     0.1146
   3105 H            1.9172    -7.8476    -1.7906 H       0      r0     0.0665
   3106 H            6.2178   -16.3109    -1.8261 H       0      r0     0.0365
   3107 H            6.0190   -14.0022    -3.1148 H       0      r0     0.0910
   3108 H            1.1784    -6.1620    -1.0630 H       0      r0     0.0534
   3109 H           -0.2898    -4.7186     0.5749 H       0      r0     0.1042
   3110 H           -2.0372   -17.2783    -2.5275 H       0      r0     0.1111
   3111 H           -0.5440   -15.0044    -2.1153 H       0      r0     0.0873
   3112 H           -2.9730    -9.1178     1.9211 H       0      r0     0.0616
   3113 H           -5.6334    -9.4121     1.5369 H       0      r0     0.0490
   3114 H           -6.8478   -10.7338     0.0318 H       0      r0     0.0302
   3115 H           -6.1425   -11.8429    -1.2886 H       0      r0     0.0761
   3116 H            3.8338   -17.6500     6.9314 H       0      r0     0.3071
   3117 H            1.4335    14.8028     1.4342 H       0      r0     0.3137
   3118 C            3.3964    -6.6683   -14.6558 C       0      r0     0.1806
   3119 C            3.1514    -7.6532   -15.7561 C       0      r0    -0.0060
   3120 C            4.0916    -8.0467   -16.5490 C       0      r0    -0.0266
   3121 C            5.4909    -7.5489   -16.6913 C       0      r0     0.1781
   3122 C            6.2380    -8.5017   -17.7689 C       0      r0     0.0128
   3123 O            6.0710    -6.6713   -16.2176 O       0      r0    -0.5000
   3124 O            2.5822    -5.8600   -14.4008 O       0      r0    -0.4889
   3125 C            7.3748    -9.3183   -17.0967 C       5      r5     0.1570
   3126 C            8.0675    -8.6812   -16.0333 C       5      r5    -0.0089
   3127 C            8.8376    -9.6777   -15.5107 C       5      r5    -0.0317
   3128 C            8.4895   -10.9142   -16.2068 C       5      r5     0.0881
   3129 O            7.4756   -10.5925   -17.4380 O       5      r5    -0.4830
   3130 C            8.9389   -12.0300   -16.0289 C       0      r0    -0.0240
   3131 C            4.7556    -6.5294   -13.9576 C       0      r0     0.0181
   3132 C            4.4295    -6.2366    -9.4810 C       0      r0     0.1846
   3133 C            3.4998    -5.8321   -10.4796 C       0      r0    -0.0105
   3134 C            3.6711    -6.0120   -11.8473 C       0      r0    -0.0008
   3135 C            4.8567    -6.5803   -12.3996 C       0      r0     0.1685
   3136 O            5.8290    -7.0296   -11.8890 O       0      r0    -0.5105
   3137 H            2.1835    -8.0527   -15.8884 H       0      r0     0.0889
   3138 H            3.7699    -8.8161   -17.2650 H       0      r0     0.0463
   3139 H            5.5039    -9.1472   -18.2478 H       0      r0     0.0727
   3140 H            6.5564    -7.9012   -18.6061 H       0      r0     0.1071
   3141 H            7.9825    -7.6750   -15.6483 H       0      r0     0.0823
   3142 H            9.4083    -9.5228   -14.5635 H       0      r0     0.0455
   3143 H            9.7367   -12.2350   -15.2980 H       0      r0     0.0926
   3144 H            8.4603   -12.8946   -16.4827 H       0      r0     0.1164
   3145 H            5.3105    -7.4497   -14.1730 H       0      r0     0.0842
   3146 H            5.3236    -5.6661   -14.3569 H       0      r0     0.0888
   3147 H            2.5923    -5.2861   -10.2428 H       0      r0     0.0485
   3148 H            2.8884    -5.7338   -12.5428 H       0      r0     0.1165
   3149 C           -0.6376   -11.0691    -5.1383 C       0      r0     0.2171
   3150 C           -0.3789   -11.7350    -6.4378 C       0      r0     0.0245
   3151 C            0.7210   -12.2682    -6.9123 C       0      r0     0.0108
   3152 C            2.0232   -12.5595    -6.3169 C       0      r0     0.2027
   3153 C            2.9793   -13.3093    -7.2530 C       0      r0    -0.0094
   3154 O            2.4230   -12.2200    -5.2649 O       0      r0    -0.4735
   3155 O           -1.6099   -10.9116    -4.5272 O       0      r0    -0.4658
   3156 C            3.2272   -12.4725    -8.5728 C       5      r5     0.1296
   3157 C            3.4169   -13.1595    -9.7441 C       5      r5    -0.0461
   3158 C            3.7692   -12.1931   -10.6759 C       5      r5    -0.0347
   3159 C            3.8048   -10.8876   -10.0100 C       5      r5     0.0947
   3160 O            3.2053   -11.1383    -8.5787 O       5      r5    -0.4540
   3161 C            4.1106    -9.7729   -10.5951 C       0      r0    -0.0256
   3162 C            0.5569   -10.1968    -4.5829 C       0      r0     0.0304
   3163 C            1.5542    -7.5318    -8.0495 C       0      r0     0.0324
   3164 C            2.4256    -8.2296    -7.1267 C       0      r0    -0.0081
   3165 C            1.9928    -9.0189    -6.0285 C       0      r0     0.0053
   3166 C            0.7323    -9.0419    -5.4991 C       0      r0     0.1668
   3167 O           -0.2581    -8.2633    -5.8421 O       0      r0    -0.4544
   3168 H           -1.2186   -11.6125    -7.1372 H       0      r0     0.1101
   3169 H            0.7658   -12.6043    -7.9359 H       0      r0     0.0576
   3170 H            3.9789   -13.4665    -6.8864 H       0      r0     0.0611
   3171 H            2.7390   -14.3271    -7.3493 H       0      r0     0.0393
   3172 H            3.3765   -14.1880    -9.9287 H       0      r0     0.0272
   3173 H            3.9894   -12.3069   -11.7031 H       0      r0     0.0851
   3174 H            4.2930    -9.6885   -11.6682 H       0      r0     0.0473
   3175 H            4.1530    -8.8324   -10.1096 H       0      r0     0.0921
   3176 H            0.2997    -9.9899    -3.4852 H       0      r0     0.0797
   3177 H            1.5276   -10.7107    -4.4055 H       0      r0     0.1258
   3178 H            3.4010    -8.1423    -7.5945 H       0      r0     0.0892
   3179 H            2.6790    -9.6455    -5.5039 H       0      r0     0.0779
   3180 C            4.9443     4.8884    -1.2514 C       5      r5     0.1059
   3181 O            4.6764     4.9871     0.3186 O       5      r5    -0.4763
   3182 C            5.3257     6.1992     0.4934 C       5      r5     0.1220
   3183 C            5.9199     6.7732    -0.6554 C       5      r5    -0.0274
   3184 C            5.7019     5.8967    -1.7632 C       5      r5    -0.0019
   3185 C            4.3487     3.9044    -2.0827 C       0      r0    -0.0054
   3186 C            6.0176     7.9723     2.3005 C       0      r0     0.1240
   3187 O            5.5062     8.7972     3.5074 O       0      r0    -0.4616
   3188 C            8.2492     9.5359     3.4299 C       0      r0     0.1666
   3189 C            8.3037     8.8710     2.2623 C       0      r0     0.0199
   3190 C            7.2103     7.9290     1.7633 C       0      r0    -0.0184
   3191 C            5.2079     6.9920     1.7129 C       0      r0     0.0036
   3192 C            4.5540     3.7087    -3.4239 C       0      r0     0.1025
   3193 C            3.7489     2.7956    -4.0528 C       0      r0    -0.0311
   3194 C            4.1993     2.7040    -5.3496 C       0      r0    -0.0260
   3195 C            5.3230     3.5799    -5.6539 C       0      r0     0.0794
   3196 O            5.6442     4.5200    -4.2479 O       0      r0    -0.4660
   3197 C            5.9073     3.7713    -6.6888 C       0      r0    -0.0252
   3198 H            6.4579     7.7132    -0.6451 H       0      r0     0.0441
   3199 H            6.0866     5.9705    -2.7830 H       0      r0     0.1023
   3200 H            3.6503     3.1765    -1.7386 H       0      r0     0.0481
   3201 H            9.2228     8.7893     1.7094 H       0      r0     0.1452
   3202 H            7.4329     7.2246     1.0167 H       0      r0     0.0396
   3203 H            4.3898     6.9932     2.3201 H       0      r0     0.0905
   3204 H            2.9941     2.1890    -3.5909 H       0      r0     0.0583
   3205 H            3.7752     2.0112    -6.0364 H       0      r0     0.0493
   3206 H            5.6630     3.1744    -7.6149 H       0      r0     0.0587
   3207 H            6.6609     4.4995    -6.7957 H       0      r0     0.0945
   3208 C            8.8233   -18.4366    -4.3609 C       5      r5     0.1358
   3209 O           10.1786   -17.7199    -4.2806 O       5      r5    -0.4714
   3210 C            9.9941   -16.9784    -5.4663 C       5      r5     0.1341
   3211 C            8.7130   -17.1049    -6.0762 C       5      r5    -0.0074
   3212 C            7.9627   -18.0777    -5.3712 C       5      r5     0.0102
   3213 C            8.4454    18.5460    -3.4155 C       0      r0     0.0187
   3214 C           11.0435   -15.4403    -7.1612 C       5      r5     0.0947
   3215 O           11.9378   -14.2813    -7.3365 O       5      r5    -0.5040
   3216 C           11.4114   -13.8788    -8.7071 C       5      r5     0.1063
   3217 C           10.4203   -14.7931    -9.1690 C       5      r5    -0.0081
   3218 C           10.2198   -15.8002    -8.2070 C       5      r5    -0.0238
   3219 C           11.0349   -16.2004    -5.9155 C       0      r0    -0.0051
   3220 C            7.2375    17.8076    -3.4866 C       5      r5     0.1295
   3221 C            7.2131    16.7251    -2.5960 C       5      r5    -0.0463
   3222 C            6.0211    15.9756    -2.7090 C       5      r5    -0.0475
   3223 C            5.3702    16.7659    -3.7149 C       5      r5     0.0828
   3224 O            6.1854    18.0495    -4.3120 O       5      r5    -0.4730
   3225 C            4.2250    16.2521    -3.9457 C       0      r0    -0.0482
   3226 H            8.4547   -16.6159    -6.9826 H       0      r0     0.0668
   3227 H            7.0229   -18.5508    -5.6575 H       0      r0     0.1145
   3228 H            9.1624    18.2839    -2.6493 H       0      r0     0.1121
   3229 H            9.8854   -14.7135   -10.1478 H       0      r0     0.0867
   3230 H            9.5966   -16.6479    -8.2983 H       0      r0     0.0831
   3231 H           11.8907   -16.0468    -5.3256 H       0      r0     0.0613
   3232 H            7.9372    16.4326    -1.9034 H       0      r0     0.0339
   3233 H            5.7165    15.0481    -2.2935 H       0      r0     0.0894
   3234 H            3.9702    15.3576    -3.3742 H       0      r0     0.0923
   3235 H            3.4552    16.6357    -4.5958 H       0      r0     0.0479
   3236 C            8.9056   -15.4160    -0.8497 C       5      r5     0.1159
   3237 O            9.5660   -14.0744    -0.7814 O       5      r5    -0.4611
   3238 C            8.7810   -13.7858     0.5123 C       5      r5     0.1308
   3239 C            7.8687   -14.6948     1.1474 C       5      r5    -0.0594
   3240 C            8.0089   -15.7453     0.2205 C       5      r5    -0.0312
   3241 C            9.1051   -16.3600    -1.8479 C       0      r0    -0.0056
   3242 C            8.8212   -12.6977     1.1997 C       0      r0     0.1358
   3243 H            7.1526   -14.6282     1.9702 H       0      r0     0.0259
   3244 H            7.5331   -16.7082     0.2273 H       0      r0     0.0481
   3245 H            9.5889   -16.6685    -2.7955 H       0      r0     0.1270
   3246 H            8.1160   -12.5478     1.9792 H       0      r0     0.0707
   3247 C            9.9109    16.1411    -6.2858 C       5      r5     0.1639
   3248 O            9.4731    16.9289    -7.4491 O       5      r5    -0.4358
   3249 C            8.0243    16.7689    -7.0792 C       5      r5     0.1291
   3250 C            7.8215    16.0010    -5.8795 C       5      r5    -0.0183
   3251 C            9.0804    15.6065    -5.3194 C       5      r5    -0.0443
   3252 C           11.1772    15.7278    -5.9155 C       0      r0     0.1684
   3253 C            6.9899    17.3289    -7.7931 C       0      r0    -0.0040
   3254 H            6.8822    15.8533    -5.4751 H       0      r0     0.0640
   3255 H            9.2621    14.9929    -4.4709 H       0      r0     0.0302
   3256 H           11.3689    15.0641    -5.1117 H       0      r0     0.0809
   3257 H            6.5438    17.8092    -8.6138 H       0      r0     0.0692
   3258 C          -13.8419   -16.8747    -3.9196 C       5      r5     0.0901
   3259 O          -12.2563   -16.6183    -3.6141 O       5      r5    -0.4747
   3260 C          -12.0938   -15.8890    -4.7679 C       5      r5     0.1338
   3261 C          -13.1770   -15.7568    -5.6676 C       5      r5    -0.0239
   3262 C          -14.3400   -16.4198    -5.1550 C       5      r5    -0.0345
   3263 C          -14.8510   -17.4299    -3.2575 C       0      r0    -0.0238
   3264 C          -10.8900   -15.2339    -5.0757 C       0      r0     0.0142
   3265 H          -13.1796   -15.1998    -6.5507 H       0      r0     0.0606
   3266 H          -15.2937   -16.6515    -5.5671 H       0      r0     0.0660
   3267 H          -15.7937   -17.7584    -2.9449 H       0      r0     0.0814
   3268 H          -10.1205   -15.2994    -4.4203 H       0      r0     0.0936
   3269 C          -10.2142     2.2404    18.1650 C       5      r5     0.1530
   3270 O          -10.6804     2.6137    16.9305 O       5      r5    -0.4523
   3271 C          -11.7416     3.6861    17.5189 C       5      r5     0.1123
   3272 C          -11.7092     3.5924   -18.5899 C       5      r5    -0.0065
   3273 C          -10.7983     2.6405   -18.1524 C       5      r5    -0.0116
   3274 C           -9.0421     1.3566    18.3995 C       0      r0    -0.0016
   3275 C          -12.7123     4.3126    16.8393 C       0      r0    -0.0059
   3276 H          -12.3581     4.2370   -17.9789 H       0      r0     0.0737
   3277 H          -10.5496     2.3158   -17.1599 H       0      r0     0.0615
   3278 H           -8.6165     0.9159    17.5153 H       0      r0     0.0945
   3279 H          -13.5302     4.9833    16.5900 H       0      r0     0.0562
   3280 C           -6.7175    -3.4838    11.8163 C       6      r6    -0.0207
   3281 C           -7.8647    -3.2516    12.5088 C       6      r6    -0.0319
   3282 C           -8.7289    -4.2771    12.1758 C       6      r6    -0.0141
   3283 C           -8.8372    -5.0148    10.9164 C       6      r6     0.0917
   3284 C           -7.4101    -7.0368    10.9129 C       5      r5     0.1960
   3285 O           -6.7578    -7.2986    12.0394 O       5      r5    -0.4854
   3286 C           -6.1967    -5.9572    12.4238 C       5      r5     0.1240
   3287 C           -6.3079    -4.8727    11.3300 C       6      r6    -0.0170
   3288 C           -7.5378    -5.5666    10.4894 C       6      r6     0.0216
   3289 C           -5.5476    -5.6071    13.5471 C       0      r0    -0.0004
   3290 C           -5.7310    -2.3545    11.5624 C       0      r0    -0.0166
   3291 C           -9.3765    -4.0788     9.7582 C       0      r0    -0.0219
   3292 C           -7.9717    -8.0131    10.1130 C       0      r0     0.0508
   3293 O          -10.0348    -6.2494    11.1777 O       0      r0    -0.5301
   3294 C           -4.4290    -1.8463    15.6260 C       0      r0     0.1848
   3295 C           -5.6310    -2.4011    15.4727 C       0      r0    -0.0142
   3296 C           -5.8649    -3.7056    14.7115 C       0      r0    -0.0250
   3297 C           -4.9550    -4.2768    13.9092 C       0      r0     0.1401
   3298 O           -3.7616    -3.6902    13.4650 O       0      r0    -0.4800
   3299 O           -9.1587    -6.6020     8.5348 O       5      r5    -0.4864
   3300 C           -8.7839    -7.8217     8.9747 C       5      r5     0.1482
   3301 C           -9.3490    -9.0261     8.3690 C       5      r5    -0.0150
   3302 C          -10.3786    -8.7010     7.4804 C       5      r5    -0.0368
   3303 C          -10.2883    -7.2744     7.5079 C       5      r5     0.0773
   3304 O           -7.1975    -0.3210    12.1807 O       5      r5    -0.4681
   3305 C           -7.5155     0.9714    11.2271 C       5      r5     0.0890
   3306 C           -6.7899     0.7479    10.0004 C       5      r5    -0.0308
   3307 C           -6.2115    -0.4980    10.0244 C       5      r5     0.0026
   3308 C           -6.4934    -0.9906    11.2781 C       5      r5     0.1405
   3309 C          -10.8335    -3.6698    10.0958 C       5      r5     0.1384
   3310 C          -10.9219    -2.5342    10.9613 C       5      r5     0.0063
   3311 C          -12.0412    -2.6943    11.6371 C       5      r5     0.0148
   3312 C          -12.6899    -3.9906    11.2290 C       5      r5     0.0841
   3313 O          -11.8455    -4.4033     9.7250 O       5      r5    -0.5032
   3314 C           -8.1921     2.0291    11.5931 C       0      r0    -0.0039
   3315 C          -11.1441    -6.7975     6.7016 C       0      r0    -0.0513
   3316 H           -8.0472    -2.3278    12.9967 H       0      r0     0.1239
   3317 H           -9.6155    -4.2851    12.7619 H       0      r0     0.0885
   3318 H           -5.3421    -4.9155    10.8025 H       0      r0     0.0678
   3319 H           -7.3058    -5.5146     9.4683 H       0      r0     0.0716
   3320 H           -5.5681    -6.5168    14.1416 H       0      r0     0.0807
   3321 H           -5.0004    -2.0911    12.3427 H       0      r0     0.0936
   3322 H           -4.9127    -2.6331    10.8796 H       0      r0     0.0632
   3323 H           -8.7221    -3.2182     9.7076 H       0      r0     0.0464
   3324 H           -9.2986    -4.5427     8.7951 H       0      r0     0.1001
   3325 H           -7.8542    -9.0739    10.3301 H       0      r0     0.1155
   3326 H           -6.4513    -1.8974    15.9390 H       0      r0     0.0704
   3327 H           -6.8359    -4.1071    14.9323 H       0      r0     0.0394
   3328 H           -9.0118    -9.9724     8.6869 H       0      r0     0.0896
   3329 H          -11.1415    -9.3982     7.0724 H       0      r0     0.0593
   3330 H           -6.8337     1.3186     9.0782 H       0      r0     0.0520
   3331 H           -5.5652    -0.8389     9.2393 H       0      r0     0.1351
   3332 H          -10.2606    -1.7332    11.0053 H       0      r0     0.1065
   3333 H          -12.4578    -1.9309    12.3059 H       0      r0     0.1121
   3334 H           -8.2257     2.8508    10.9333 H       0      r0     0.0758
   3335 H           -8.6562     2.0922    12.5490 H       0      r0     0.1300
   3336 H          -11.7718    -7.4535     6.0719 H       0      r0     0.0935
   3337 H          -11.2590    -5.7204     6.5690 H       0      r0     0.0437
   3338 C          -15.6183    -6.6802    14.6638 C       6      r6     0.0764
   3339 C          -17.0030    -7.1870    14.7608 C       6      r6    -0.0086
   3340 C          -17.6628    -7.4499    15.9659 C       6      r6    -0.0331
   3341 C          -16.9363    -7.1297    17.1747 C       6      r6    -0.0070
   3342 C          -14.7941    -7.1929    18.3458 C       5      r5     0.1681
   3343 O          -13.7687    -6.4368    17.9384 O       5      r5    -0.4651
   3344 C          -13.6405    -6.5753    16.3670 C       5      r5     0.1299
   3345 C          -14.7827    -7.3657    15.8093 C       6      r6     0.0047
   3346 C          -15.5800    -7.7173    17.2310 C       6      r6     0.0263
   3347 C          -12.5660    -6.1884    15.7135 C       0      r0     0.0064
   3348 C          -15.0586    -7.1000    13.2835 C       0      r0    -0.0099
   3349 C          -17.5326    -6.4994    18.2989 C       0      r0     0.0046
   3350 C          -15.0154    -7.3997   -17.8337 C       0      r0     0.0107
   3351 O          -15.5966    -4.9392    14.7209 O       0      r0    -0.4882
   3352 C          -11.3877    -6.1727    12.1439 C       5      r5     0.2466
   3353 C          -12.4864    -5.0660    12.2925 C       5      r5     0.0182
   3354 C          -12.9279    -5.0814    13.5998 C       5      r5    -0.0104
   3355 C          -12.2615    -6.1034    14.2262 C       5      r5     0.1160
   3356 O          -11.3495    -6.9151    13.5646 O       5      r5    -0.4811
   3357 O          -17.0401    -8.9573   -18.1050 O       5      r5    -0.4803
   3358 C          -16.0735    -8.1452   -17.2676 C       5      r5     0.1098
   3359 C          -16.2387    -8.1292   -15.8847 C       5      r5    -0.0265
   3360 C          -17.4229    -8.7730   -15.6697 C       5      r5    -0.0209
   3361 C          -17.9727    -9.1905   -16.9795 C       5      r5     0.1162
   3362 O          -15.8790    -9.5420    12.8274 O       5      r5    -0.4676
   3363 C          -15.0186   -10.6761    12.2626 C       5      r5     0.1089
   3364 C          -13.6299   -10.2475    12.2520 C       5      r5    -0.0269
   3365 C          -13.5836    -8.9634    12.7817 C       5      r5    -0.0235
   3366 C          -14.8635    -8.6102    13.0133 C       5      r5     0.1287
   3367 C          -18.3494    -5.3558    18.4908 C       0      r0     0.1145
   3368 C           18.5570    -4.9286    17.3179 C       0      r0    -0.0123
   3369 C           17.5616    -3.7714    17.3768 C       0      r0    -0.0018
   3370 C           16.9585    -3.1470    16.2475 C       0      r0     0.1467
   3371 O           18.5749    -4.7170   -17.7358 O       0      r0    -0.4921
   3372 C          -15.4048   -11.8716    11.8507 C       0      r0    -0.0195
   3373 C           18.2302    -9.8767   -17.0507 C       0      r0    -0.0265
   3374 H          -17.6103    -7.1807    13.9277 H       0      r0     0.0725
   3375 H           18.5665    -7.6404    16.0217 H       0      r0     0.0704
   3376 H          -14.3029    -8.2047    15.3091 H       0      r0     0.0680
   3377 H          -15.8204    -8.7982    17.3338 H       0      r0     0.1383
   3378 H          -11.9193    -5.7934    16.4867 H       0      r0     0.0854
   3379 H          -15.5063    -6.5515    12.3743 H       0      r0     0.1511
   3380 H          -13.9957    -6.8383    13.0764 H       0      r0     0.0555
   3381 H          -17.1921    -6.5859   -18.2665 H       0      r0     0.1045
   3382 H          -17.0976    -3.0451   -18.4349 H       0      r0     0.2844
   3383 H          -14.3098    -6.7933   -17.2302 H       0      r0     0.0722
   3384 H          -13.7824    -3.8948    11.2455 H       0      r0     0.1370
   3385 H          -13.6310    -4.3561    14.0464 H       0      r0     0.1176
   3386 H          -15.5614    -7.5862   -15.2115 H       0      r0     0.0781
   3387 H          -17.8088    -9.0745   -14.6705 H       0      r0     0.0996
   3388 H          -12.7017   -10.7599    11.9067 H       0      r0     0.1083
   3389 H          -12.7100    -8.3308    12.7615 H       0      r0     0.0950
   3390 H          -18.3388    -5.3096    16.3913 H       0      r0     0.0660
   3391 H           17.2629    -3.4087    18.3280 H       0      r0     0.0947
   3392 H          -14.6912   -12.5333    11.3361 H       0      r0     0.0472
   3393 H          -16.4518   -12.1485    11.8747 H       0      r0     0.1249
   3394 H           17.7807   -10.1419   -16.1145 H       0      r0     0.0509
   3395 H           17.8293   -10.3499   -17.9326 H       0      r0     0.0865
   3396 C           -8.7628   -10.9413    12.9705 C       6      r6    -0.0173
   3397 C           -7.9573    -9.8046    13.2721 C       6      r6    -0.0262
   3398 C           -7.8640    -9.1316    14.4412 C       6      r6     0.0034
   3399 C           -8.7961    -9.3755    15.6235 C       6      r6     0.1358
   3400 C          -10.0407   -11.7279    15.9642 C       5      r5     0.1338
   3401 O           -9.4388   -12.8739    15.2185 O       5      r5    -0.4888
   3402 C           -9.7888   -12.5263    13.9579 C       5      r5     0.1465
   3403 C           -9.9503   -11.0981    13.7222 C       6      r6    -0.0039
   3404 C           -9.9299   -10.4013    15.2494 C       6      r6     0.0116
   3405 C          -10.5918   -13.3945    13.1539 C       0      r0     0.0016
   3406 C           -8.4040   -11.7335    11.7190 C       0      r0    -0.0075
   3407 C           -9.5590    -8.0000    15.8600 C       0      r0    -0.0072
   3408 C          -10.6782   -11.8129    17.1336 C       0      r0    -0.0001
   3409 O           -8.1004    -9.7755    16.8338 O       0      r0    -0.5584
   3410 C          -11.8729   -12.0100    10.1171 C       5      r5     0.1018
   3411 C          -12.0623   -13.4414     9.9885 C       5      r5    -0.0177
   3412 C          -11.5644   -14.0652    11.1417 C       5      r5    -0.0045
   3413 C          -11.0514   -12.9999    11.8875 C       5      r5     0.1113
   3414 O          -11.1111   -11.5928    11.3563 O       5      r5    -0.4995
   3415 O          -11.4807    -9.4562    17.4078 O       5      r5    -0.4722
   3416 C          -11.3429   -10.7517    17.8541 C       5      r5     0.1471
   3417 C          -11.8809   -11.0299   -18.4078 C       5      r5    -0.0175
   3418 C          -12.5209    -9.9262   -17.8384 C       5      r5    -0.0110
   3419 C          -12.3109    -8.9226    18.7266 C       5      r5     0.1529
   3420 O           -6.9659   -10.8779    10.0260 O       0      r0    -0.5063
   3421 C           -4.4364   -10.9647    10.1708 C       0      r0     0.1411
   3422 C           -4.6017   -11.3932    11.4527 C       0      r0    -0.0318
   3423 C           -5.9193   -11.5536    11.9853 C       0      r0    -0.0196
   3424 C           -7.0165   -11.2952    11.1466 C       0      r0     0.1601
   3425 C           -8.4775    -6.8558    15.9443 C       6      r6     0.0724
   3426 C           -8.6415    -5.5237    15.3454 C       6      r6    -0.0341
   3427 C           -7.6349    -5.1088    17.1298 C       6      r6     0.0107
   3428 C           -6.4806    -6.1511    17.0687 C       6      r6     0.1246
   3429 O           -6.9457    -7.3904    16.6608 O       6      r6    -0.5022
   3430 C           -5.3376    -5.7544    17.4484 C       0      r0    -0.0420
   3431 C          -12.3019   -11.2211     9.1781 C       0      r0    -0.0409
   3432 H           -7.3223    -9.4711    12.5149 H       0      r0     0.1045
   3433 H           -7.1637    -8.3655    14.5930 H       0      r0     0.1130
   3434 H          -10.8321   -10.7428    13.2165 H       0      r0     0.0919
   3435 H          -10.8201    -9.9094    15.5279 H       0      r0     0.0927
   3436 H          -10.6891   -14.4401    13.3942 H       0      r0     0.0595
   3437 H           -8.4299   -12.8373    11.8305 H       0      r0     0.0719
   3438 H           -9.1290   -11.8414    10.8699 H       0      r0     0.1292
   3439 H          -10.3321    -7.8701    15.1030 H       0      r0     0.1006
   3440 H          -10.1262    -8.1573    16.8114 H       0      r0     0.1275
   3441 H          -10.5544   -12.8138    17.5994 H       0      r0     0.0493
   3442 H          -12.5027   -14.0011     9.1140 H       0      r0     0.1051
   3443 H          -11.5755   -15.1123    11.3317 H       0      r0     0.0715
   3444 H          -11.8496   -11.9893   -17.9342 H       0      r0     0.0336
   3445 H          -12.9650    -9.8603   -16.8632 H       0      r0     0.0475
   3446 H           -3.7618   -11.6665    12.0419 H       0      r0     0.0384
   3447 H           -6.1002   -11.8972    12.9842 H       0      r0     0.0892
   3448 H           -9.4185    -5.2324    14.6789 H       0      r0     0.0681
   3449 H          -12.4780    -0.0614    17.9781 H       0      r0     0.3145
   3450 H           -5.0733    -4.7017    17.6163 H       0      r0     0.0418
   3451 H           -4.5643    -6.4394    17.5664 H       0      r0     0.0860
   3452 H          -12.7567   -11.6429     8.2708 H       0      r0     0.0632
   3453 H          -12.2981   -10.1549     9.2164 H       0      r0     0.0583
   3454 C          -11.7206    -1.7696    16.8080 C       6      r6     0.0695
   3455 C          -12.5291    -2.4454    15.8149 C       6      r6    -0.0164
   3456 C          -13.8564    -2.3320    15.9146 C       6      r6    -0.0288
   3457 C          -13.9729    -1.3405    16.9582 C       6      r6     0.0493
   3458 C          -13.6544    -1.3003   -17.9780 C       5      r5     0.1506
   3459 O          -12.4077    -0.7768   -17.6194 O       5      r5    -0.5152
   3460 C          -11.4409    -1.5078   -18.2614 C       5      r5     0.1517
   3461 C          -11.9041    -2.3514    18.1150 C       6      r6     0.0108
   3462 C          -13.6835    -2.1159    18.3038 C       6      r6     0.0124
   3463 C          -10.1922    -1.7180   -17.7594 C       0      r0     0.0065
   3464 C          -10.3317    -1.5959    16.3133 C       0      r0    -0.0015
   3465 C          -15.3684    -0.6689    16.9318 C       0      r0    -0.0036
   3466 C          -14.7194    -1.3118   -17.1118 C       0      r0     0.0114
   3467 O          -12.5214    -0.1931    16.9657 O       0      r0    -0.5730
   3468 C           -8.2390    -4.1941    18.0612 C       5      r5     0.1335
   3469 C           -7.3989    -3.8563   -18.3480 C       5      r5    -0.0172
   3470 C           -8.0428    -2.8860   -17.5731 C       5      r5    -0.0032
   3471 C           -9.2413    -2.6803   -18.2585 C       5      r5     0.1237
   3472 O           -9.4803    -3.4281    18.0346 O       5      r5    -0.5025
   3473 O          -16.2143    -2.5797   -18.6164 O       0      r0    -0.5770
   3474 C          -15.9805    -1.9355   -17.3966 C       0      r0     0.1250
   3475 C          -16.9131    -1.6852   -16.4141 C       0      r0    -0.0453
   3476 C          -18.1769    -2.4313   -16.3151 C       0      r0    -0.0367
   3477 C          -18.5437    -3.5774   -16.9979 C       0      r0     0.1487
   3478 O          -10.3869    -1.7578    13.8732 O       0      r0    -0.4826
   3479 C          -11.1864     0.6146    12.1447 C       0      r0     0.2220
   3480 C          -11.0511     1.0748    13.5111 C       0      r0     0.0054
   3481 C          -10.7827     0.3491    14.6624 C       0      r0     0.0224
   3482 C          -10.4065    -1.0413    14.8021 C       0      r0     0.1870
   3483 C          -15.4301     0.3556    15.7439 C       5      r5     0.1349
   3484 C          -14.3247     1.0386    15.3887 C       5      r5    -0.0107
   3485 C          -14.8283     2.1957    14.7205 C       5      r5    -0.0459
   3486 C          -16.2856     2.0353    14.7122 C       5      r5     0.0973
   3487 O          -16.7178     0.7072    15.3915 O       5      r5    -0.4616
   3488 C          -16.7966     2.9901    14.1378 C       0      r0    -0.0279
   3489 C           -8.7947    -5.6534    16.6938 C       6      r6     0.0199
   3490 H          -12.0553    -3.0540    15.0868 H       0      r0     0.0692
   3491 H          -14.6156    -2.7287    15.2887 H       0      r0     0.0954
   3492 H          -11.4891    -3.3360    18.1707 H       0      r0     0.1050
   3493 H          -14.1860    -3.0412    18.3259 H       0      r0     0.1059
   3494 H           -9.9403    -1.0784   -16.9361 H       0      r0     0.0627
   3495 H           -9.8205    -0.9958    17.0244 H       0      r0     0.0647
   3496 H           -9.7373    -2.5091    16.3860 H       0      r0     0.1108
   3497 H          -16.1677    -1.4534    16.9834 H       0      r0     0.1000
   3498 H          -15.6390    -0.0904    17.7889 H       0      r0     0.0743
   3499 H          -14.4407    -0.7435   -16.2279 H       0      r0     0.0743
   3500 H           -6.5093    -4.3476   -18.0959 H       0      r0     0.0439
   3501 H           -7.7366    -2.4358   -16.6500 H       0      r0     0.0840
   3502 H          -16.7432    -1.0389   -15.6016 H       0      r0     0.0381
   3503 H           18.4131    -2.0514   -15.5779 H       0      r0     0.0653
   3504 H          -11.2857     2.1318    13.5467 H       0      r0     0.1045
   3505 H          -10.8471     0.8981    15.5884 H       0      r0     0.1283
   3506 H          -13.2660     0.8406    15.6135 H       0      r0     0.1292
   3507 H          -14.1938     3.0415    14.4024 H       0      r0     0.0670
   3508 H          -16.2826     3.7342    13.6368 H       0      r0     0.0377
   3509 H          -17.8890     3.0950    14.1207 H       0      r0     0.1586
   3510 H           -7.6050    -8.9080    17.0712 H       0      r0     0.3484
   3511 H          -10.6273    -5.9153    10.3772 H       0      r0     0.3193
   3512 C           -6.4760     4.2192    -2.5860 C       0      r0     0.1427
   3513 C           -5.9759     5.2215    -1.7529 C       0      r0    -0.0273
   3514 C           -4.6510     5.4770    -1.4606 C       0      r0    -0.0435
   3515 C           -3.4615     4.6747    -1.7017 C       0      r0     0.1496
   3516 C           -2.1682     5.4601    -1.3239 C       0      r0    -0.0155
   3517 O           -3.4316     3.5357    -2.0051 O       0      r0    -0.5076
   3518 O           -7.7677     3.9466    -2.6646 O       0      r0    -0.5067
   3519 C           -1.0624     5.1890    -2.3827 C       5      r5     0.1505
   3520 C           -1.0241     3.9493    -3.0232 C       5      r5    -0.0100
   3521 C            0.0797     3.9990    -3.8299 C       5      r5    -0.0315
   3522 C            0.7306     5.2913    -3.5709 C       5      r5     0.1177
   3523 O           -0.1265     6.1496    -2.6074 O       5      r5    -0.4438
   3524 C            1.7768     5.5942    -4.1441 C       0      r0    -0.0028
   3525 C           -5.4947     3.5364    -3.4968 C       0      r0     0.0230
   3526 C           -7.3929     2.6056    -7.6502 C       0      r0     0.1647
   3527 C           -7.8906     3.3008    -6.5546 C       0      r0    -0.0330
   3528 C           -7.3151     3.6638    -5.3042 C       0      r0    -0.0065
   3529 C           -6.0395     3.1973    -4.9737 C       0      r0     0.1810
   3530 O           -5.2300     2.7468    -5.7126 O       0      r0    -0.4855
   3531 H           -6.7243     5.8113    -1.2648 H       0      r0     0.0592
   3532 H           -4.4763     6.3481    -0.8614 H       0      r0     0.0543
   3533 H           -2.3816     6.4920    -1.0922 H       0      r0     0.0640
   3534 H           -1.8232     5.0120    -0.3848 H       0      r0     0.0489
   3535 H           -1.7394     3.1369    -2.9339 H       0      r0     0.1034
   3536 H            0.5151     3.2805    -4.5424 H       0      r0     0.0472
   3537 H            2.2037     4.8328    -4.7559 H       0      r0     0.0513
   3538 H            2.2637     6.5815    -4.0510 H       0      r0     0.1186
   3539 H           -4.5375     4.0629    -3.5433 H       0      r0     0.1020
   3540 H           -5.2481     2.5574    -3.0011 H       0      r0     0.1116
   3541 H           -8.9543     3.4913    -6.9328 H       0      r0     0.0338
   3542 H           -7.8132     4.2609    -4.5682 H       0      r0     0.1056
   3543 C           13.6341     5.0887    -8.8980 C       0      r0     0.2097
   3544 C           12.6986     5.8792    -9.7900 C       0      r0     0.0031
   3545 C           12.5876     5.7651   -11.0898 C       0      r0     0.0033
   3546 C           13.1537     4.7606   -11.9927 C       0      r0     0.1706
   3547 C           12.5818     4.8335   -13.3543 C       0      r0    -0.0170
   3548 O           14.0775     4.0625   -11.6414 O       0      r0    -0.5241
   3549 O           13.3570     4.6566    -7.8535 O       0      r0    -0.4779
   3550 C           11.6106     5.7304   -13.7469 C       5      r5     0.1062
   3551 C           11.5836     5.5308   -15.1697 C       5      r5    -0.0264
   3552 C           10.7428     6.5784   -15.5595 C       5      r5    -0.0319
   3553 C           10.1485     7.3440   -14.4821 C       5      r5     0.0720
   3554 O           10.8032     6.7326   -13.1412 O       5      r5    -0.4787
   3555 C            9.3510     8.2686   -14.5149 C       0      r0    -0.0263
   3556 C           15.1360     4.8442    -9.2316 C       0      r0     0.0320
   3557 C          -18.4851     6.8583   -11.3270 C       0      r0    -0.0332
   3558 C           17.7635     7.0636   -10.4983 C       0      r0    -0.0057
   3559 C           16.8620     5.9414   -10.2352 C       0      r0     0.0040
   3560 C           15.9777     6.0900    -9.3196 C       0      r0     0.1459
   3561 O           15.8126     7.1464    -8.4230 O       0      r0    -0.5013
   3562 H           12.1134     6.6269    -9.3263 H       0      r0     0.0600
   3563 H           11.8024     6.3754   -11.6399 H       0      r0     0.1211
   3564 H           15.4493     6.8919   -17.1228 H       0      r0     0.3429
   3565 H           13.1024     4.2484   -14.0752 H       0      r0     0.0647
   3566 H           12.0115     4.7530   -15.8042 H       0      r0     0.0734
   3567 H           10.4326     6.8061   -16.5873 H       0      r0     0.0756
   3568 H            8.9806     8.5656   -15.4936 H       0      r0     0.0747
   3569 H            8.9754     8.6803   -13.5915 H       0      r0     0.0859
   3570 H           15.5765     4.1568    -8.5382 H       0      r0     0.0985
   3571 H           15.2101     4.1807   -10.1131 H       0      r0     0.1086
   3572 H           17.5496     8.0311   -10.0682 H       0      r0     0.1443
   3573 H           16.9501     5.0237   -10.8208 H       0      r0     0.1064
   3574 C           16.5590     8.6207     5.9999 C       5      r5     0.1139
   3575 O           15.8564     9.8338     5.2211 O       5      r5    -0.4485
   3576 C           15.0509     9.0072     4.4722 C       5      r5     0.1358
   3577 C           15.1708     7.5997     4.6695 C       5      r5    -0.0090
   3578 C           16.1333     7.3609     5.6541 C       5      r5     0.0114
   3579 C           17.6277     8.7441     6.9104 C       0      r0    -0.0024
   3580 C           13.5438     8.7327     2.5410 C       5      r5     0.1462
   3581 O           12.4163     9.0186     1.8206 O       5      r5    -0.4333
   3582 C           12.5453     7.8458     0.8241 C       5      r5     0.1385
   3583 C           13.5863     6.9482     1.0808 C       5      r5    -0.0125
   3584 C           14.2937     7.5551     2.1165 C       5      r5    -0.0137
   3585 C           14.0163     9.5129     3.6078 C       0      r0     0.0214
   3586 C           18.2804     7.6962     7.6039 C       5      r5     0.1377
   3587 C          -18.0027     7.9863     8.5490 C       5      r5    -0.0389
   3588 C          -17.4638     6.8272     9.1184 C       5      r5    -0.0379
   3589 C          -18.2582     5.8639     8.4064 C       5      r5     0.1287
   3590 O           17.9964     6.3890     7.3611 O       5      r5    -0.4599
   3591 C          -17.9972     4.7130     8.8305 C       0      r0     0.0079
   3592 H           14.5099     6.8326     4.2834 H       0      r0     0.1116
   3593 H           16.5207     6.3828     5.9617 H       0      r0     0.1444
   3594 H           17.9239     9.7595     7.1638 H       0      r0     0.0530
   3595 H           13.8341     6.0636     0.5677 H       0      r0     0.0523
   3596 H           15.3151     7.3083     2.4882 H       0      r0     0.0417
   3597 H           13.6012    10.5141     3.7082 H       0      r0     0.0891
   3598 H          -17.6598     9.0101     8.7883 H       0      r0     0.0226
   3599 H          -16.6755     6.6905     9.8839 H       0      r0     0.0359
   3600 H          -17.2502     4.6190     9.6157 H       0      r0     0.0672
   3601 H          -18.4562     3.8016     8.4307 H       0      r0     0.1310
   3602 C          -15.6682    10.1147    -3.2914 C       5      r5     0.1420
   3603 O          -16.9731     9.8434    -3.7090 O       5      r5    -0.4568
   3604 C          -17.5238     9.4925    -2.3233 C       5      r5     0.1063
   3605 C          -16.4774     9.5915    -1.3355 C       5      r5    -0.0362
   3606 C          -15.2947    10.0416    -1.9547 C       5      r5    -0.0061
   3607 C          -14.6773    10.4950    -4.3143 C       0      r0    -0.0008
   3608 C           17.9922     8.8085    -0.7820 C       5      r5     0.1344
   3609 O           17.0212     7.9400    -0.5102 O       5      r5    -0.4725
   3610 C           16.6932     8.5619     1.0493 C       5      r5     0.0780
   3611 C           17.5757     9.5987     1.3683 C       5      r5    -0.0314
   3612 C           18.3505     9.7349     0.2184 C       5      r5    -0.0166
   3613 C           18.5614     9.0414    -2.1315 C       0      r0     0.0047
   3614 C          -13.4490    11.0025    -3.9647 C       5      r5     0.0887
   3615 C          -12.7892    11.2363    -5.1141 C       5      r5    -0.0228
   3616 C          -11.5008    11.7048    -4.6139 C       5      r5    -0.0230
   3617 C          -11.5234    11.6920    -3.1997 C       5      r5     0.1172
   3618 O          -12.8154    11.3204    -2.3976 O       5      r5    -0.4577
   3619 C          -10.3692    12.1320    -2.8000 C       0      r0    -0.0312
   3620 H          -16.5183     9.4754    -0.2601 H       0      r0     0.0295
   3621 H          -14.2966    10.2642    -1.5873 H       0      r0     0.1202
   3622 H          -15.0836    10.3747    -5.2735 H       0      r0     0.0760
   3623 H           17.5293    10.2872     2.2110 H       0      r0     0.0637
   3624 H          -18.2907    10.5717     0.0434 H       0      r0     0.0668
   3625 H           17.9007     9.0208    -2.9924 H       0      r0     0.0820
   3626 H          -13.1282    11.1270    -6.1561 H       0      r0     0.1147
   3627 H          -10.6836    12.0592    -5.2417 H       0      r0     0.0734
   3628 H           -9.5328    12.3045    -3.4960 H       0      r0     0.0594
   3629 H          -10.2011    12.2787    -1.6794 H       0      r0     0.0646
   3630 C            9.0426     9.7814    -0.7528 C       5      r5     0.1453
   3631 O           10.0505     9.4954     0.1371 O       5      r5    -0.4718
   3632 C           10.6247     8.2926    -0.7016 C       5      r5     0.1092
   3633 C            9.9542     7.9833    -1.8891 C       5      r5    -0.0307
   3634 C            8.8932     8.9163    -1.8653 C       5      r5    -0.0209
   3635 C            8.0781    10.8141    -0.7019 C       0      r0    -0.0129
   3636 C           11.7565     7.6112    -0.3279 C       0      r0     0.0140
   3637 H           10.1626     7.2491    -2.6862 H       0      r0     0.0945
   3638 H            8.0797     8.9167    -2.5438 H       0      r0     0.0496
   3639 H            7.4370    10.8973    -1.5506 H       0      r0     0.0518
   3640 H           12.1372     6.6737    -0.7860 H       0      r0     0.0512
   3641 C           10.6721    16.9478    -1.1310 C       0      r0     0.0835
   3642 O           10.3479    18.6407    -0.7896 O       0      r0    -0.4614
   3643 C            9.3501    18.1107     0.3957 C       0      r0     0.0950
   3644 C            9.2482    16.6639     0.6607 C       0      r0    -0.0461
   3645 C           10.0939    15.9592    -0.2265 C       0      r0    -0.0393
   3646 C           11.3472    16.4118    -2.1066 C       0      r0    -0.0188
   3647 C            8.6256    18.9394     1.1234 C       0      r0    -0.0210
   3648 H            8.6881    16.2360     1.4601 H       0      r0     0.0377
   3649 H           10.1974    14.8689    -0.1510 H       0      r0     0.0469
   3650 H           11.9176    16.0403    -2.9437 H       0      r0     0.0666
   3651 H            8.0404   -18.4731     1.7847 H       0      r0     0.0660
   3652 C           13.5022    -8.9965    -4.1259 C       0      r0     0.0941
   3653 O           14.2826    -9.9779    -5.2448 O       0      r0    -0.4570
   3654 C           13.1336   -11.1497    -4.9420 C       0      r0     0.0941
   3655 C           11.9818   -10.7755    -4.0901 C       0      r0    -0.0236
   3656 C           12.2458    -9.5303    -3.4927 C       0      r0    -0.0279
   3657 C           13.8988    -7.8317    -3.7750 C       0      r0    -0.0208
   3658 C           13.0716   -12.3584    -5.4378 C       0      r0    -0.0258
   3659 H           11.1212   -11.3390    -3.8869 H       0      r0     0.0584
   3660 H           11.6273    -9.0697    -2.7689 H       0      r0     0.0494
   3661 H           14.2042    -6.8668    -3.4439 H       0      r0     0.0581
   3662 H           12.8460   -13.3425    -5.7678 H       0      r0     0.0939
   3663 C            1.2594    18.2762     1.0874 C       5      r5     0.1170
   3664 O            0.6963   -18.3218     0.5338 O       5      r5    -0.4688
   3665 C            0.0502   -17.9393     1.7519 C       5      r5     0.1691
   3666 C            0.0432   -18.7662     2.9352 C       5      r5    -0.0410
   3667 C            0.8359    18.1415     2.4341 C       5      r5    -0.0171
   3668 C            1.9967    17.4185     0.4290 C       0      r0    -0.0100
   3669 C           -0.6562   -16.8752     2.0685 C       0      r0     0.1726
   3670 H           -0.4415   -18.6350     3.8882 H       0      r0     0.0483
   3671 H            1.1233    17.2735     2.9273 H       0      r0     0.0642
   3672 H            2.6615    16.6333     0.0240 H       0      r0     0.0570
   3673 H           -1.0511   -16.7693     3.0804 H       0      r0     0.0820
   3674 C           -8.1781    15.0653     9.8317 C       5      r5     0.1077
   3675 O           -8.4194    16.1762     8.7969 O       5      r5    -0.4431
   3676 C           -8.7148    17.1567     9.8648 C       5      r5     0.1528
   3677 C           -8.7025    16.8520    11.2840 C       5      r5    -0.0448
   3678 C           -8.3783    15.5110    11.2103 C       5      r5    -0.0418
   3679 C           -7.7585    13.8240     9.6563 C       0      r0    -0.0259
   3680 C           -9.0200    18.4569     9.8159 C       0      r0     0.1823
   3681 H           -8.9441    17.4413    12.1823 H       0      r0     0.0585
   3682 H           -8.2819    14.8948    12.0595 H       0      r0     0.0455
   3683 H           -7.4089    12.7872     9.7781 H       0      r0     0.0502
   3684 H           -9.3562   -18.9143    10.7007 H       0      r0     0.1392
   3685 C            3.5061     0.5431     7.4164 C       6      r6     0.0733
   3686 C            2.0986     0.3372     7.9367 C       6      r6    -0.0119
   3687 C            1.6592    -0.8628     8.4027 C       6      r6    -0.0524
   3688 C            2.5435    -1.8997     8.7491 C       6      r6    -0.0223
   3689 C            4.9369    -2.6022     8.9940 C       0      r0     0.0191
   3690 O            6.3766    -0.0846     8.8394 O       0      r0    -0.4206
   3691 C            5.9044    -0.1481     7.7709 C       0      r0     0.2163
   3692 C            4.4339    -0.6538     7.5274 C       6      r6     0.0143
   3693 C            3.9015    -1.6918     8.5143 C       6      r6    -0.0041
   3694 C            6.4261     0.5236     6.5421 C       0      r0     0.0176
   3695 C            3.3001     0.8761     5.9672 C       0      r0    -0.0202
   3696 C            1.9249    -3.1959     9.1523 C       0      r0    -0.0461
   3697 C            4.7515    -3.4397    10.0827 C       0      r0    -0.0012
   3698 O            4.0702     2.0195     8.3924 O       0      r0    -0.5279
   3699 C            6.6048     2.0131     2.1632 C       0      r0    -0.0229
   3700 C            6.3109     0.9401     3.0150 C       0      r0    -0.0232
   3701 C            6.5003     1.1339     4.4564 C       0      r0    -0.0162
   3702 C            6.0808     0.1031     5.2766 C       0      r0     0.1421
   3703 O            5.4607    -1.0352     4.8299 O       0      r0    -0.5765
   3704 O            6.8734    -4.6132     9.5341 O       5      r5    -0.4420
   3705 C            5.7650    -4.3790    10.3735 C       5      r5     0.1427
   3706 C            5.6647    -5.2266    11.5319 C       5      r5    -0.0220
   3707 C            6.5890    -6.2762    11.5005 C       5      r5    -0.0380
   3708 C            7.2706    -5.9120    10.2978 C       5      r5     0.1005
   3709 O            2.8913     3.4833     6.2943 O       5      r5    -0.4519
   3710 C            2.6389     4.3954     4.8365 C       5      r5     0.0761
   3711 C            2.8117     3.4065     3.8043 C       5      r5    -0.0122
   3712 C            3.0580     2.0586     4.1596 C       5      r5    -0.0285
   3713 C            3.1356     2.1238     5.5251 C       5      r5     0.1123
   3714 C            1.3833    -3.0771    10.6222 C       0      r0     0.1621
   3715 C           -0.0058    -3.3862    10.6483 C       0      r0    -0.0311
   3716 C           -0.7947    -3.3616    11.8103 C       0      r0    -0.0362
   3717 C           -0.2322    -3.0689    13.0871 C       0      r0    -0.0313
   3718 O            2.1477    -2.8077    11.4831 O       0      r0    -0.4858
   3719 C            2.5711     5.6073     4.8463 C       0      r0    -0.0332
   3720 C            8.1659    -6.7679    10.0480 C       0      r0    -0.0427
   3721 H            1.4352     1.1070     7.6674 H       0      r0     0.0916
   3722 H            0.6473    -1.1376     8.6096 H       0      r0     0.0426
   3723 H            4.3974    -1.1204     6.5568 H       0      r0     0.0991
   3724 H            5.8427    -2.6724     8.4736 H       0      r0     0.1538
   3725 H            7.0891     1.3368     6.6650 H       0      r0     0.0578
   3726 H            5.9886    -1.9316     5.2228 H       0      r0     0.3526
   3727 H            3.2679     0.0252     5.3063 H       0      r0     0.0510
   3728 H            1.1566    -3.4581     8.4345 H       0      r0     0.0248
   3729 H            2.6111    -4.0048     9.0272 H       0      r0     0.0413
   3730 H            3.8014    -3.4780    10.6129 H       0      r0     0.1026
   3731 H            5.8498     0.0794     2.5955 H       0      r0     0.0917
   3732 H            6.9905     2.0301     4.8517 H       0      r0     0.0448
   3733 H            4.8747    -5.2063    12.2381 H       0      r0     0.0474
   3734 H            6.7519    -7.1507    12.1613 H       0      r0     0.0584
   3735 H            2.7860     3.6703     2.7950 H       0      r0     0.0768
   3736 H            3.1173     1.2038     3.5231 H       0      r0     0.0526
   3737 H           -0.4860    -3.5789     9.7347 H       0      r0     0.0429
   3738 H           -1.8771    -3.5981    11.7538 H       0      r0     0.0879
   3739 H            2.5265     6.1926     3.9773 H       0      r0     0.0639
   3740 H            2.5137     6.2102     5.7615 H       0      r0     0.0572
   3741 H            8.4898    -7.6170    10.6581 H       0      r0     0.0482
   3742 H            8.7372    -6.6321     9.1527 H       0      r0     0.0657
   3743 C           -0.7948    -4.2143    18.3360 C       6      r6     0.1755
   3744 C            0.1465    -5.3578   -18.6969 C       6      r6    -0.0032
   3745 C            1.0833    -5.1859   -17.8425 C       6      r6    -0.0362
   3746 C            0.9289    -3.8715   -17.2938 C       6      r6    -0.0189
   3747 C            1.1002    -1.3829   -17.7068 C       5      r5     0.1413
   3748 O           -0.0775    -0.7602   -18.1238 O       5      r5    -0.4824
   3749 C           -0.4400    -1.5416    18.2673 C       5      r5     0.1399
   3750 C            0.2968    -2.8454    18.1148 C       6      r6     0.0013
   3751 C            1.2659    -2.7535   -18.1973 C       6      r6     0.0023
   3752 C           -1.3412    -1.0778    17.3888 C       0      r0     0.0325
   3753 C           -1.6063    -4.8936    17.0322 C       0      r0     0.0026
   3754 C            1.0559    -3.6696   -15.7965 C       0      r0     0.0026
   3755 C            2.0148    -0.7895   -16.8829 C       0      r0     0.0150
   3756 O           -1.7720    -3.8982   -18.5564 O       0      r0    -0.4886
   3757 C           -2.4098    -3.3585    13.7026 C       0      r0     0.1799
   3758 C           -1.1681    -2.9832    14.1866 C       0      r0     0.0086
   3759 C           -0.9306    -2.4275    15.5322 C       0      r0    -0.0031
   3760 C           -1.7884    -1.6750    16.2010 C       0      r0     0.1383
   3761 O           -3.0873    -1.3426    15.6747 O       0      r0    -0.4591
   3762 O            3.5434    -2.6967   -16.9843 O       5      r5    -0.4840
   3763 C            3.2635    -1.3990   -16.6081 C       5      r5     0.1345
   3764 C            4.1945    -0.6492   -15.8110 C       5      r5    -0.0059
   3765 C            5.3736    -1.4025   -15.5600 C       5      r5    -0.0266
   3766 C            5.0434    -2.5901   -16.2727 C       5      r5     0.0872
   3767 O            0.7401    -4.7935    16.0336 O       5      r5    -0.4920
   3768 C            1.2744    -5.6826    14.8128 C       5      r5     0.1058
   3769 C            0.2181    -6.5617    14.3518 C       5      r5    -0.0215
   3770 C           -0.8806    -6.3535    15.1436 C       5      r5    -0.0233
   3771 C           -0.5250    -5.3699    16.0462 C       5      r5     0.1279
   3772 C           -0.2119    -4.2747   -15.0811 C       0      r0     0.1856
   3773 C           -1.3627    -4.3370   -15.8996 C       0      r0     0.0082
   3774 C           -2.6614    -4.7619   -15.4496 C       0      r0     0.0002
   3775 C           -2.9638    -5.2636   -14.1935 C       0      r0     0.1954
   3776 O           -0.1673    -4.4699   -13.9162 O       0      r0    -0.4635
   3777 C            2.4241    -5.5726    14.1946 C       0      r0    -0.0334
   3778 C            6.0458    -3.3986   -16.1914 C       0      r0    -0.0468
   3779 H           -0.0244    -6.2735    18.3677 H       0      r0     0.0811
   3780 H            1.6773    -5.9650   -17.4663 H       0      r0     0.0761
   3781 H            0.6991    -3.1939    17.2175 H       0      r0     0.0917
   3782 H            2.3500    -2.9372   -18.4639 H       0      r0     0.1076
   3783 H           -1.8659    -0.2140    17.7681 H       0      r0     0.1168
   3784 H           -2.3030    -5.6471    17.3048 H       0      r0     0.0639
   3785 H           -2.3783    -4.2183    16.5616 H       0      r0     0.0758
   3786 H            1.9281    -4.1470   -15.3643 H       0      r0     0.1466
   3787 H            1.2014    -2.5880   -15.6308 H       0      r0     0.0657
   3788 H            1.8909     0.2675   -16.5890 H       0      r0     0.1103
   3789 H            0.8553    -2.7945    13.1074 H       0      r0     0.1123
   3790 H            0.1314    -2.5170    15.8470 H       0      r0     0.0684
   3791 H            4.0413     0.3244   -15.4653 H       0      r0     0.0802
   3792 H            6.2793    -1.0846   -15.0730 H       0      r0     0.1139
   3793 H            0.3039    -7.3645    13.6366 H       0      r0     0.0465
   3794 H           -1.7970    -6.9318    15.1702 H       0      r0     0.0395
   3795 H           -1.2756    -3.8600   -16.8611 H       0      r0     0.1349
   3796 H           -3.6347    -4.6689   -15.9517 H       0      r0     0.0697
   3797 H            2.6462    -6.2199    13.3786 H       0      r0     0.0438
   3798 H            3.1626    -4.8227    14.4200 H       0      r0     0.0684
   3799 H            6.9691    -3.0874   -15.7964 H       0      r0     0.0377
   3800 H            6.0238    -4.3558   -16.6340 H       0      r0     0.0963
   3801 C            3.2992     0.1490    12.8424 C       6      r6    -0.0404
   3802 C            3.1993     0.8002    11.6106 C       6      r6    -0.0320
   3803 C            2.1966     1.7498    11.3700 C       6      r6     0.0035
   3804 C            1.1514     1.9948    12.4165 C       6      r6     0.0987
   3805 C            2.3359     3.1305    14.2195 C       5      r5     0.0827
   3806 O            3.9071     2.6760    14.6902 O       5      r5    -0.4912
   3807 C            3.7696     1.3754    14.9366 C       5      r5     0.1475
   3808 C            2.7432     0.7054    14.0952 C       6      r6    -0.0169
   3809 C            1.6614     1.8869    13.8251 C       6      r6    -0.0056
   3810 C            4.4727     0.6823    15.8930 C       0      r0     0.0014
   3811 C            4.2585    -0.9571    12.9952 C       0      r0    -0.0163
   3812 C            0.1222     0.7635    12.2072 C       0      r0    -0.0081
   3813 C            1.7142     3.9221    15.3385 C       0      r0    -0.0056
   3814 O            0.3924     3.4293    12.1595 O       0      r0    -0.4551
   3815 C            3.8927    -2.7186    16.8791 C       5      r5     0.1004
   3816 C            4.9006    -2.3967    17.8249 C       5      r5     0.0016
   3817 C            5.2121    -1.0908    17.3544 C       5      r5     0.0050
   3818 C            4.3785    -0.7035    16.2733 C       5      r5     0.1339
   3819 O            3.4620    -1.5956    15.7934 O       5      r5    -0.4899
   3820 O           -0.6485     2.8597    15.7138 O       0      r0    -0.4676
   3821 C            0.3912     3.8523    15.8392 C       0      r0     0.1371
   3822 C            0.2570     4.9281    16.6576 C       0      r0    -0.0281
   3823 C           -1.0415     5.1271    17.3141 C       0      r0    -0.0224
   3824 C           -2.0936     5.2575    17.8088 C       0      r0    -0.0457
   3825 O            6.6174    -1.4190    12.5941 O       0      r0    -0.4314
   3826 C            8.3952     0.7986    11.8197 C       0      r0     0.0397
   3827 C            7.1567     1.4644    11.9981 C       0      r0     0.0088
   3828 C            5.9764     0.8507    12.3436 C       0      r0     0.0137
   3829 C            5.8142    -0.5704    12.6274 C       0      r0     0.1928
   3830 C           -1.1580     0.8397    13.1339 C       6      r6     0.1589
   3831 C           -1.0498     0.7650    14.4431 C       6      r6     0.0342
   3832 C           -2.8894     1.6750    14.8379 C       6      r6     0.0603
   3833 C           -3.5343     1.1100    13.6478 C       6      r6     0.0966
   3834 O           -2.3626     0.8545    12.5561 O       6      r6    -0.4766
   3835 C           -4.6356     0.6045    13.5875 C       0      r0    -0.0110
   3836 C            3.4846    -3.9275    17.1248 C       0      r0    -0.0367
   3837 H            3.7875     0.4485    10.7785 H       0      r0     0.0978
   3838 H            2.0692     2.1631    10.3967 H       0      r0     0.1190
   3839 H            2.3342    -0.2189    14.5855 H       0      r0     0.0876
   3840 H            0.8817     1.6794    14.5167 H       0      r0     0.0778
   3841 H            5.2167     1.2856    16.4543 H       0      r0     0.0634
   3842 H            4.1827    -1.4791    14.0252 H       0      r0     0.1263
   3843 H            4.3034    -1.7230    12.1482 H       0      r0     0.1087
   3844 H           -0.0614     0.6218    11.1353 H       0      r0     0.1072
   3845 H            0.8165    -0.0341    12.4307 H       0      r0     0.0364
   3846 H            2.2755     4.6879    15.7816 H       0      r0     0.0470
   3847 H            5.3258    -3.0030    18.6498 H       0      r0     0.0753
   3848 H            5.9950    -0.4965    17.8260 H       0      r0     0.0717
   3849 H            0.9796     5.7164    16.7025 H       0      r0     0.0226
   3850 H           -3.0500     5.2776    18.3003 H       0      r0     0.0601
   3851 H            7.2688     2.5041    11.9108 H       0      r0     0.0826
   3852 H            5.1585     1.4694    12.4570 H       0      r0     0.0732
   3853 H           -0.2623     0.1323    14.9340 H       0      r0     0.0475
   3854 H           -1.4323     4.0538   -14.2315 H       0      r0     0.3541
   3855 H           -5.3183     0.6379    14.4325 H       0      r0     0.0632
   3856 H           -5.0244     0.0428    12.7221 H       0      r0     0.0946
   3857 H            3.7561    -4.5318    17.9644 H       0      r0     0.0545
   3858 H            2.6757    -4.2788    16.4911 H       0      r0     0.1130
   3859 C           -3.8618     0.9287   -16.9278 C       6      r6    -0.0373
   3860 C           -3.5454     0.4613   -15.5662 C       6      r6    -0.0481
   3861 C           -2.7889     1.1006   -14.6664 C       6      r6    -0.0195
   3862 C           -1.9600     2.3250   -15.1162 C       6      r6     0.1299
   3863 C           -4.1004     3.8525   -15.6646 C       5      r5     0.1376
   3864 O           -5.3568     3.3276   -16.2521 O       5      r5    -0.4733
   3865 C           -4.9023     2.7550   -17.3974 C       5      r5     0.1573
   3866 C           -3.5547     2.2740   -17.3062 C       6      r6    -0.0067
   3867 C           -2.8090     3.2036   -16.1521 C       6      r6     0.0004
   3868 C           -5.4970     3.0269   -18.7244 C       0      r0     0.0096
   3869 C           -4.4228    -0.1111   -17.8952 C       0      r0    -0.0238
   3870 C           -0.8938     1.5687   -15.9712 C       0      r0    -0.0000
   3871 C           -4.2248     4.9135   -14.8866 C       0      r0     0.0236
   3872 O           -1.4353     3.0125   -14.0224 O       0      r0    -0.5645
   3873 C           -3.8064     2.0957    15.8699 C       5      r5     0.1573
   3874 C           -5.1107     2.5157    15.5188 C       5      r5    -0.0314
   3875 C           -5.8482     2.9030    16.6779 C       5      r5    -0.0337
   3876 C           -4.8829     2.6777    17.6587 C       5      r5     0.1124
   3877 O           -3.4857     2.1683    17.2284 O       5      r5    -0.4537
   3878 O           -1.9709     5.4590   -14.5978 O       0      r0    -0.5253
   3879 C           -3.1579     5.6702   -14.3355 C       0      r0     0.1686
   3880 C           -3.6885     6.6256   -13.3867 C       0      r0    -0.0111
   3881 C           -2.9570     7.5717   -12.6905 C       0      r0    -0.0375
   3882 C           -1.5326     7.6635   -12.7446 C       0      r0     0.0053
   3883 O           -6.5185    -0.3144    18.5845 O       0      r0    -0.4530
   3884 C           -8.4791     1.1351   -17.8686 C       0      r0    -0.0067
   3885 C           -7.9314     0.9489   -16.6285 C       0      r0    -0.0267
   3886 C           -6.5537     0.5528   -16.7347 C       0      r0    -0.0109
   3887 C           -5.9820     0.0696   -17.9915 C       0      r0     0.1795
   3888 C            0.2992     2.4366   -16.4500 C       5      r5     0.1499
   3889 C            0.2483     3.1106   -17.6270 C       5      r5    -0.0179
   3890 C            1.5398     3.6325   -17.7966 C       5      r5    -0.0259
   3891 C            2.3614     3.1569   -16.6972 C       5      r5     0.1047
   3892 O            1.4687     2.2661   -15.7378 O       5      r5    -0.4512
   3893 C            3.5766     3.5099   -16.4885 C       0      r0    -0.0248
   3894 C           -1.4404     1.9489    14.9640 C       6      r6     0.1780
   3895 H           -3.9385    -0.5172   -15.3134 H       0      r0     0.0701
   3896 H           -2.6332     0.7899   -13.6753 H       0      r0     0.0659
   3897 H           -2.9405     2.2147   -18.2726 H       0      r0     0.1004
   3898 H           -2.2214     3.9607   -16.6121 H       0      r0     0.0664
   3899 H           -6.4830     3.4532   -18.7624 H       0      r0     0.0705
   3900 H           -4.0658    -0.0568    18.5536 H       0      r0     0.1094
   3901 H           -4.0900    -1.1649   -17.6249 H       0      r0     0.0613
   3902 H           -0.5211     0.8281   -15.3369 H       0      r0     0.0883
   3903 H           -1.3729     1.1339   -16.8486 H       0      r0     0.0634
   3904 H           -5.1796     5.2592   -14.7157 H       0      r0     0.0881
   3905 H           -5.5334     2.6141    14.5575 H       0      r0     0.0327
   3906 H           -6.8605     3.3182    16.6843 H       0      r0     0.0475
   3907 H           -4.7162     6.4545   -13.2610 H       0      r0     0.0754
   3908 H           -3.4716     8.2331   -12.0265 H       0      r0     0.0552
   3909 H           -8.4341     1.1562   -15.6589 H       0      r0     0.1016
   3910 H           -5.8880     0.7227   -15.9182 H       0      r0     0.0636
   3911 H           -0.6178     3.2581   -18.2420 H       0      r0     0.0581
   3912 H            1.8386     4.2886   -18.5648 H       0      r0     0.0381
   3913 H            3.9710     4.1999   -17.1922 H       0      r0     0.0485
   3914 H            4.1899     3.1168   -15.6748 H       0      r0     0.0755
   3915 H            2.5608     3.7282    13.3552 H       0      r0     0.1291
   3916 H            5.0542     2.0305     8.8468 H       0      r0     0.3827
   3917 C           -1.1490     9.7200    -1.3029 C       7      r7     0.1796
   3918 C           -0.9914     8.8486    -0.2629 C       7      r7    -0.0006
   3919 C            0.1237     8.0111     0.0630 C       7      r7     0.0056
   3920 C            1.2798     7.8007    -0.6442 C       7      r7     0.1956
   3921 C            2.1364     6.7488    -0.0850 C       0      r0     0.0221
   3922 O            1.7933     8.4826    -1.6474 O       7      r7    -0.4306
   3923 O           -0.2574    10.0219    -2.1948 O       7      r7    -0.4583
   3924 C            1.3039     5.6729     0.6522 C       5      r5     0.1406
   3925 C            1.1753     4.4841     0.0686 C       5      r5    -0.0075
   3926 C            0.4602     3.6687     0.9809 C       5      r5    -0.0137
   3927 C            0.1356     4.4073     2.1673 C       5      r5     0.0858
   3928 O            0.6886     5.9069     1.8656 O       5      r5    -0.4856
   3929 C           -0.4205     4.0904     3.2056 C       0      r0    -0.0442
   3930 C           -2.4716    10.3977    -1.4123 C       0      r0     0.0020
   3931 C           -5.4221    10.6624     2.1335 C       0      r0     0.1014
   3932 C           -4.6596    11.6699     1.6259 C       0      r0    -0.0230
   3933 C           -3.7263    11.4446     0.5226 C       0      r0    -0.0350
   3934 C           -3.4371    10.1857    -0.1182 C       0      r0     0.1618
   3935 O           -3.7786     9.0742     0.0414 O       0      r0    -0.4719
   3936 H           -1.8077     8.8992     0.4881 H       0      r0     0.0804
   3937 H           -0.0528     7.3682     0.8558 H       0      r0     0.0974
   3938 H            2.7323     6.2536    -0.8772 H       0      r0     0.1045
   3939 H            3.0374     7.0754     0.4940 H       0      r0     0.0745
   3940 H            1.6190     4.2026    -0.9083 H       0      r0     0.0535
   3941 H            0.1833     2.6769     0.7242 H       0      r0     0.0919
   3942 H           -0.8513     3.1150     3.3759 H       0      r0     0.0400
   3943 H           -0.6029     4.8087     3.9531 H       0      r0     0.0579
   3944 H           -2.3455    11.4306    -1.8091 H       0      r0     0.0488
   3945 H           -3.0552    10.0741    -2.2926 H       0      r0     0.0878
   3946 H           -4.6819    12.7095     2.0200 H       0      r0     0.0750
   3947 H           -3.2933    12.2982     0.0073 H       0      r0     0.0310
   3948 C           -8.7442     9.1397    -6.8078 C       0      r0     0.2139
   3949 C           -9.7597     8.9567    -5.7093 C       0      r0    -0.0093
   3950 C           -9.3111     8.6991    -4.5058 C       0      r0    -0.0267
   3951 C           -7.9623     8.1374    -4.2210 C       0      r0     0.1887
   3952 C           -7.6757     8.1593    -2.6678 C       0      r0    -0.0097
   3953 O           -7.1569     7.7578    -4.9655 O       0      r0    -0.4865
   3954 O           -8.9155     8.8360    -7.9164 O       0      r0    -0.4677
   3955 C           -7.4817     9.5386    -2.0737 C       5      r5     0.1303
   3956 C           -7.4634     9.5700    -0.6893 C       5      r5    -0.0175
   3957 C           -7.0695    10.8521    -0.3705 C       5      r5    -0.0242
   3958 C           -6.6543    11.5258    -1.6141 C       5      r5     0.0950
   3959 O           -7.0459    10.6103    -2.8264 O       5      r5    -0.4752
   3960 C           -6.0798    12.6689    -1.6913 C       0      r0    -0.0373
   3961 C           -7.4755     9.9757    -6.4798 C       0      r0     0.0343
   3962 C           -7.4353    13.9461    -8.4980 C       0      r0     0.1898
   3963 C           -6.6997    12.8717    -8.8001 C       0      r0     0.0032
   3964 C           -6.7552    11.5993    -8.0316 C       0      r0     0.0014
   3965 C           -7.5686    11.3430    -7.0035 C       0      r0     0.1644
   3966 O           -8.3645    12.1883    -6.3406 O       0      r0    -0.4835
   3967 H          -10.8178     9.0944    -5.8700 H       0      r0     0.0537
   3968 H          -10.0547     8.6168    -3.7423 H       0      r0     0.0340
   3969 H           -8.3205     7.5743    -2.0131 H       0      r0     0.0353
   3970 H           -6.8618     7.4827    -2.2804 H       0      r0     0.0513
   3971 H           -7.7613     8.7284     0.0242 H       0      r0     0.1002
   3972 H           -6.9926    11.2903     0.5821 H       0      r0     0.0592
   3973 H           -5.8238    13.1269    -0.7961 H       0      r0     0.0400
   3974 H           -5.7306    13.1476    -2.6587 H       0      r0     0.0945
   3975 H           -7.3636     9.9983    -5.3930 H       0      r0     0.1082
   3976 H           -6.6405     9.4049    -6.9402 H       0      r0     0.0798
   3977 H           -5.9502    13.0101    -9.5664 H       0      r0     0.0963
   3978 H           -6.1034    10.8359    -8.3981 H       0      r0     0.0569
   3979 C          -15.6185     5.5419    -6.7865 C       5      r5     0.1417
   3980 O          -16.9815     5.5365    -7.1728 O       5      r5    -0.4654
   3981 C          -16.7386     4.5884    -8.4221 C       5      r5     0.0937
   3982 C          -15.4875     4.1200    -8.6000 C       5      r5    -0.0338
   3983 C          -14.7529     4.6908    -7.5182 C       5      r5     0.0035
   3984 C          -15.1042     6.3779    -5.7706 C       0      r0     0.0013
   3985 C          -17.9107     3.6236   -10.4838 C       0      r0     0.1376
   3986 O           18.0631     3.3578   -11.1124 O       0      r0    -0.4938
   3987 C          -15.9044     3.1729   -13.5403 C       0      r0    -0.0508
   3988 C          -16.9156     3.1317   -12.6142 C       0      r0    -0.0251
   3989 C          -16.7764     3.5256   -11.2292 C       0      r0    -0.0130
   3990 C          -17.8509     4.1477    -9.1999 C       0      r0     0.0090
   3991 C          -13.7759     6.3148    -5.2842 C       5      r5     0.1304
   3992 C          -13.4680     7.2359    -4.2742 C       5      r5    -0.0343
   3993 C          -12.1542     7.0995    -3.7995 C       5      r5    -0.0472
   3994 C          -11.7431     6.0217    -4.6690 C       5      r5     0.0897
   3995 O          -12.8183     5.4206    -5.6479 O       5      r5    -0.4860
   3996 C          -10.5253     5.7997    -4.4253 C       0      r0    -0.0484
   3997 H          -15.0697     3.5456    -9.3600 H       0      r0     0.0478
   3998 H          -13.7030     4.5037    -7.2784 H       0      r0     0.1129
   3999 H          -15.7480     6.9487    -5.2813 H       0      r0     0.0665
   4000 H          -17.8704     2.7166   -13.0299 H       0      r0     0.0967
   4001 H          -15.8564     3.9564   -10.8001 H       0      r0     0.0438
   4002 H           18.4594     4.3281    -8.8510 H       0      r0     0.0907
   4003 H          -14.2025     7.9115    -3.8996 H       0      r0     0.0406
   4004 H          -11.6540     7.6640    -3.0226 H       0      r0     0.0381
   4005 H           -9.9983     6.3506    -3.6750 H       0      r0     0.0420
   4006 H           -9.9532     4.9578    -4.8511 H       0      r0     0.0496
   4007 C           16.6105    -3.8028   -14.7968 C       5      r5     0.1329
   4008 O           17.6621    -3.4304   -13.7352 O       5      r5    -0.4879
   4009 C           17.2065    -2.1170   -13.5706 C       5      r5     0.1273
   4010 C           16.1002    -1.7408   -14.3597 C       5      r5    -0.0344
   4011 C           15.6762    -2.8486   -15.1421 C       5      r5    -0.0036
   4012 C           16.6659    -5.0728   -15.3528 C       0      r0     0.0268
   4013 C           17.6180     0.0687   -12.4451 C       5      r5     0.1174
   4014 O           18.5169     1.0515   -11.6977 O       5      r5    -0.4570
   4015 C           17.6650     2.1510   -11.6835 C       5      r5     0.3175
   4016 C           16.4495     2.0326   -12.2196 C       5      r5     0.0140
   4017 C           16.4113     0.7119   -12.7353 C       5      r5    -0.0351
   4018 C           17.9370    -1.2581   -12.7436 C       0      r0     0.0206
   4019 C           15.8354    -5.5176   -16.4360 C       5      r5     0.1579
   4020 C           16.3633    -6.5648   -17.2187 C       5      r5     0.0101
   4021 C           15.6336    -6.7724   -18.3998 C       5      r5    -0.0123
   4022 C           14.6470    -5.7653   -18.2199 C       5      r5     0.1086
   4023 O           14.6862    -4.8940   -16.8973 O       5      r5    -0.4714
   4024 C           13.8594    -5.7699    18.3152 C       0      r0    -0.0378
   4025 H           15.6881    -0.7361   -14.3153 H       0      r0     0.0350
   4026 H           14.8756    -2.8594   -15.8159 H       0      r0     0.0926
   4027 H           17.4556    -5.6662   -14.9033 H       0      r0     0.0687
   4028 H           15.6730     2.7831   -12.1222 H       0      r0     0.0996
   4029 H           15.5301     0.3958   -13.3514 H       0      r0     0.0282
   4030 H          -18.4522    -1.5969   -12.2320 H       0      r0     0.0960
   4031 H           17.1310    -7.2026   -16.9092 H       0      r0     0.0568
   4032 H           15.8181    -7.5566    18.3448 H       0      r0     0.0813
   4033 H           14.0847    -6.4212    17.5131 H       0      r0     0.0323
   4034 H           13.0176    -5.0383    18.2206 H       0      r0     0.1201
   4035 C          -18.1456     9.8944   -15.3070 C       5      r5     0.1200
   4036 O          -16.6260     9.4147   -15.1270 O       5      r5    -0.4379
   4037 C          -16.0669    10.6316   -15.3760 C       5      r5     0.1523
   4038 C          -16.9476    11.6947   -15.4247 C       5      r5     0.0193
   4039 C          -18.2791    11.2077   -15.5260 C       5      r5     0.0189
   4040 C           17.9451     9.1036   -15.4217 C       0      r0     0.0005
   4041 C          -14.6401    10.9154   -15.7567 C       0      r0    -0.0117
   4042 H          -16.6128    12.7754   -15.5413 H       0      r0     0.1435
   4043 H           18.1617    11.7838   -15.7633 H       0      r0     0.0906
   4044 H           17.9816     8.0318   -15.1570 H       0      r0     0.0804
   4045 H          -13.9430    10.0531   -15.6090 H       0      r0     0.0693
   4046 C           -4.0399     5.9838    -9.6107 C       0      r0     0.0898
   4047 O           -5.3678     6.9510    -9.6751 O       0      r0    -0.4622
   4048 C           -5.9549     6.1845    -8.3267 C       0      r0     0.0992
   4049 C           -5.1974     5.0620    -7.7329 C       0      r0    -0.0198
   4050 C           -4.0425     4.9544    -8.5456 C       0      r0    -0.0222
   4051 C           -2.9830     6.1091   -10.4067 C       0      r0    -0.0347
   4052 C           -7.0629     6.4646    -7.7497 C       0      r0     0.0141
   4053 H           -5.5525     4.4275    -6.9341 H       0      r0     0.1020
   4054 H           -3.2534     4.3007    -8.4689 H       0      r0     0.0728
   4055 H           -2.0524     5.9858   -10.9578 H       0      r0     0.0533
   4056 H           -7.9823     6.5634    -7.1641 H       0      r0     0.0987
   4057 C          -14.4893     8.6392   -12.7134 C       5      r5     0.1308
   4058 O          -15.2775     7.3899   -13.2069 O       5      r5    -0.4416
   4059 C          -16.2971     7.4923   -12.2260 C       5      r5     0.1508
   4060 C          -16.2683     8.4762   -11.2278 C       5      r5    -0.0240
   4061 C          -15.1329     9.1958   -11.5203 C       5      r5    -0.0281
   4062 C          -13.3989     9.1726   -13.1970 C       0      r0    -0.0154
   4063 C          -17.4048     6.5785   -12.1782 C       0      r0    -0.0095
   4064 H          -16.8709     8.6126   -10.3520 H       0      r0     0.0506
   4065 H          -14.7526    10.0473   -10.9380 H       0      r0     0.0399
   4066 H          -12.5504     9.7911   -13.3734 H       0      r0     0.0492
   4067 H          -17.4731     5.6139   -12.7198 H       0      r0     0.0698
   4068 C          -12.6944    15.0386    12.5520 C       6      r6    -0.0198
   4069 C          -12.4557    13.6680    12.9238 C       6      r6    -0.0234
   4070 C          -12.0356    13.6943    14.1537 C       6      r6    -0.0354
   4071 C          -11.8074    15.0385    14.9016 C       6      r6     0.1208
   4072 C          -10.5228    17.2283    14.2284 C       5      r5     0.1193
   4073 O          -11.4570    18.1336    13.5674 O       5      r5    -0.5044
   4074 C          -11.9473    17.4312    12.5453 C       5      r5     0.1380
   4075 C          -11.5455    16.0103    12.6165 C       6      r6    -0.0225
   4076 C          -10.7825    15.7789    13.9363 C       6      r6     0.0031
   4077 C          -12.6136    17.9714    11.4274 C       0      r0     0.0124
   4078 C          -14.0301    15.3112    11.9110 C       0      r0    -0.0302
   4079 C          -11.1782    14.6738    16.2598 C       0      r0     0.0104
   4080 C           -9.4924    17.5767    15.0578 C       0      r0    -0.0036
   4081 O          -12.8352    15.9421    15.1636 O       0      r0    -0.5971
   4082 C          -12.9633    17.0473     7.9218 C       5      r5     0.1196
   4083 C          -12.0035    16.0908     8.3142 C       5      r5    -0.0068
   4084 C          -11.7539    16.4367     9.6596 C       5      r5    -0.0115
   4085 C          -12.5482    17.5219    10.0715 C       5      r5     0.1198
   4086 O          -13.3578    18.0965     9.0667 O       5      r5    -0.4821
   4087 O           -8.4625    15.3303    15.3394 O       5      r5    -0.4796
   4088 C           -8.6469    16.6353    15.7430 C       5      r5     0.1287
   4089 C           -8.0186    17.1194    16.9111 C       5      r5    -0.0049
   4090 C           -7.3988    16.0998    17.6433 C       5      r5    -0.0268
   4091 C           -7.6060    15.0093    16.7246 C       5      r5     0.0950
   4092 O          -14.1852    12.9483    10.7650 O       0      r0    -0.4745
   4093 C          -15.0370    12.9404     9.3142 C       0      r0     0.0954
   4094 C          -15.4533    14.2381     8.7978 C       0      r0    -0.0031
   4095 C          -15.0671    15.1750     9.8078 C       0      r0    -0.0080
   4096 C          -14.4350    14.4506    10.7132 C       0      r0     0.1290
   4097 C          -12.2350    13.8780    17.0400 C       5      r5     0.1496
   4098 C          -13.4785    13.6190    16.4937 C       5      r5    -0.0212
   4099 C          -14.1450    12.8588    17.4049 C       5      r5    -0.0533
   4100 C          -13.3480    12.5876    18.6507 C       5      r5     0.0578
   4101 O          -11.9672    13.4941    18.2750 O       5      r5    -0.4723
   4102 C          -15.3661    12.0664     8.5328 C       0      r0    -0.0464
   4103 C           -7.0961    13.9691    17.1849 C       0      r0    -0.0294
   4104 H          -12.7150    12.7547    12.3912 H       0      r0     0.1088
   4105 H          -11.8083    12.7883    14.6822 H       0      r0     0.0502
   4106 H          -10.7282    15.7556    11.9492 H       0      r0     0.0341
   4107 H           -9.8634    15.1608    13.8523 H       0      r0     0.0905
   4108 H          -13.1612    18.9192    11.4301 H       0      r0     0.1385
   4109 H          -14.8212    15.3376    12.6720 H       0      r0     0.0710
   4110 H          -14.0933    16.3247    11.6349 H       0      r0     0.0405
   4111 H          -10.2055    14.1818    16.1660 H       0      r0     0.0959
   4112 H          -10.6958    15.5144    16.8135 H       0      r0     0.0797
   4113 H           -9.4624    18.6073    15.2356 H       0      r0     0.0860
   4114 H          -11.6317    15.2909     7.7125 H       0      r0     0.0730
   4115 H          -11.0550    15.8595    10.2107 H       0      r0     0.0497
   4116 H           -8.1401    18.0848    17.3745 H       0      r0     0.0817
   4117 H           -6.8640    16.2021    18.5749 H       0      r0     0.0593
   4118 H          -15.9848    14.5033     7.9150 H       0      r0     0.0789
   4119 H          -15.2150    16.2069     9.8633 H       0      r0     0.0599
   4120 H          -13.8631    13.9978    15.5880 H       0      r0     0.0746
   4121 H          -15.1496    12.4318    17.1985 H       0      r0     0.0336
   4122 H          -15.9421    12.2813     7.6125 H       0      r0     0.0594
   4123 H          -15.0860    11.0462     8.6937 H       0      r0     0.0405
   4124 H           -6.4828    13.9705    18.0898 H       0      r0     0.0510
   4125 H           -7.0998    12.9661    16.6784 H       0      r0     0.1262
   4126 C          -18.0153    15.6397   -14.2489 C       6      r6     0.1214
   4127 C           18.3113    16.4397   -13.4601 C       6      r6    -0.0142
   4128 C           18.3196    17.8130   -13.2500 C       6      r6    -0.0631
   4129 C          -18.1846    18.7180   -13.9973 C       6      r6    -0.0418
   4130 C          -17.0832    18.8715   -15.8286 C       5      r5     0.1479
   4131 O          -17.3225    17.9256   -16.8084 O       5      r5    -0.4565
   4132 C          -16.7323    16.6863   -16.2448 C       5      r5     0.1706
   4133 C          -16.8965    16.5689   -14.7471 C       6      r6     0.0118
   4134 C          -16.9285    18.2644   -14.5377 C       6      r6    -0.0079
   4135 C          -15.9442    15.9096   -16.8848 C       0      r0     0.0288
   4136 C          -17.3273    14.6390   -13.2514 C       0      r0    -0.0044
   4137 C          -18.4097   -17.6676   -13.7264 C       0      r0    -0.0280
   4138 C          -16.3807   -17.8562   -16.2029 C       0      r0     0.0132
   4139 O           18.4881    14.7390   -15.3974 O       0      r0    -0.4292
   4140 C          -14.3856    11.9609   -16.6504 C       0      r0    -0.0087
   4141 C          -14.1080    12.9566   -17.5958 C       0      r0    -0.0068
   4142 C          -14.5831    14.3028   -17.4660 C       0      r0    -0.0187
   4143 C          -15.2698    14.6774   -16.2814 C       0      r0     0.1828
   4144 O          -15.3903    14.1230   -15.2176 O       0      r0    -0.5019
   4145 O          -15.5771   -17.2908   -13.9560 O       5      r5    -0.4999
   4146 C          -15.7656   -17.0141   -15.2847 C       5      r5     0.1343
   4147 C          -15.3086   -15.7671   -15.7748 C       5      r5    -0.0140
   4148 C          -14.7555   -14.9720   -14.7675 C       5      r5    -0.0320
   4149 C          -14.9488   -15.8680   -13.6515 C       5      r5     0.1067
   4150 O           17.7766    13.5639   -12.6700 O       5      r5    -0.4605
   4151 C           17.4674    12.0498   -12.0793 C       5      r5     0.0909
   4152 C          -18.5258    11.4037   -12.0319 C       5      r5    -0.0152
   4153 C          -17.5587    12.2511   -12.4948 C       5      r5    -0.0232
   4154 C          -18.2003    13.4357   -12.8169 C       5      r5     0.1597
   4155 C           17.7587   -17.0005   -14.4981 C       0      r0     0.1378
   4156 C           16.9806   -17.8777   -15.0550 C       0      r0    -0.0190
   4157 C           15.6873   -17.4264   -15.6814 C       0      r0    -0.0340
   4158 C           15.2928   -16.1604   -15.9509 C       0      r0     0.0286
   4159 O           17.7380   -15.6409   -14.4740 O       0      r0    -0.4483
   4160 C           16.3390    11.7196   -11.8009 C       0      r0    -0.0265
   4161 C          -14.5188   -15.2950   -12.5897 C       0      r0    -0.0204
   4162 H           17.5985    15.8596   -12.9697 H       0      r0     0.1002
   4163 H           17.6700    18.2839   -12.5876 H       0      r0     0.0520
   4164 H          -15.9752    16.2929   -14.2328 H       0      r0     0.0531
   4165 H          -16.0520    18.6785   -13.9928 H       0      r0     0.0957
   4166 H          -15.8073    16.1051   -17.9053 H       0      r0     0.0606
   4167 H          -16.3458    14.3660   -13.6147 H       0      r0     0.1049
   4168 H          -17.0241    15.3330   -12.4195 H       0      r0     0.0198
   4169 H          -18.5523   -17.6946   -12.6358 H       0      r0     0.0452
   4170 H          -17.5492   -16.9685   -13.8263 H       0      r0     0.1273
   4171 H          -16.3504   -17.5766   -17.2574 H       0      r0     0.0719
   4172 H          -13.0177    11.5883   -18.7149 H       0      r0     0.0768
   4173 H          -14.3990    14.9435   -18.3331 H       0      r0     0.0365
   4174 H          -15.3419   -15.5344   -16.8294 H       0      r0     0.0735
   4175 H          -14.3513   -13.9797   -14.8237 H       0      r0     0.0468
   4176 H          -18.2269    10.4010   -11.6765 H       0      r0     0.0633
   4177 H          -16.5027    12.0574   -12.6400 H       0      r0     0.0406
   4178 H           17.1928   -18.9374   -15.0517 H       0      r0     0.0565
   4179 H           14.9057   -18.1540   -15.8638 H       0      r0     0.0616
   4180 H           16.0485    10.6626   -11.5629 H       0      r0     0.0699
   4181 H           15.4887    12.4077   -12.0091 H       0      r0     0.0637
   4182 H          -14.1503   -14.2937   -12.5801 H       0      r0     0.0406
   4183 H          -14.6841   -15.6984   -11.6303 H       0      r0     0.1241
   4184 C          -12.3948    18.4852   -18.7241 C       6      r6     0.1372
   4185 C          -11.9063    18.4828    17.3963 C       6      r6     0.0750
   4186 C          -12.7021   -18.8954    16.2756 C       6      r6    -0.0288
   4187 C          -13.8675   -18.2705    16.3813 C       6      r6    -0.0300
   4188 C          -15.0617   -16.9694    18.1571 C       5      r5     0.1371
   4189 O          -14.1175   -16.3365   -18.5667 O       5      r5    -0.5131
   4190 C          -13.4958   -17.3768   -17.8724 C       5      r5     0.1624
   4191 C          -13.7121   -18.7225   -18.5036 C       6      r6     0.0159
   4192 C          -14.6943   -18.3710    17.6867 C       6      r6    -0.0006
   4193 C          -12.6350   -17.2157   -16.8219 C       0      r0     0.0196
   4194 C          -12.3634    17.0409   -18.0650 C       0      r0    -0.0108
   4195 C          -14.4291   -17.4700    15.1770 C       0      r0    -0.0357
   4196 C          -16.1932   -16.3369    17.8150 C       0      r0    -0.0059
   4197 O          -11.1945   -18.6904    18.6728 O       7      r7    -0.5115
   4198 C          -11.6234    17.9370   -14.7922 C       5      r5     0.1053
   4199 C          -10.4766    18.7915   -14.5482 C       5      r5    -0.0313
   4200 C          -10.9327   -18.0364   -15.2825 C       5      r5    -0.0193
   4201 C          -12.1525   -18.2788   -15.9713 C       5      r5     0.1546
   4202 O          -12.7169    18.4606   -15.7305 O       5      r5    -0.4765
   4203 O          -17.2237   -18.3942    16.8594 O       5      r5    -0.4620
   4204 C          -17.1752   -16.9875    16.9934 C       5      r5     0.1143
   4205 C          -18.0523   -16.1234    16.3084 C       5      r5    -0.0478
   4206 C           18.4911   -16.9421    15.5198 C       5      r5    -0.0293
   4207 C          -18.3138   -18.3461    15.6824 C       5      r5     0.1948
   4208 O           -9.8901    17.4370   -17.9084 O       0      r0    -0.5596
   4209 C           -8.9910    13.5061   -16.9985 C       0      r0     0.1686
   4210 C           -9.3424    14.8409   -17.2641 C       0      r0    -0.0052
   4211 C          -10.6930    15.3118   -17.4290 C       0      r0     0.0107
   4212 C          -10.9256    16.5734   -17.7970 C       0      r0     0.1592
   4213 C          -14.7544   -18.4398    13.9751 C       6      r6     0.0856
   4214 C          -14.9977    18.0540    14.1926 C       6      r6    -0.0126
   4215 C          -16.4883    18.4941    12.7658 C       6      r6     0.0156
   4216 C          -15.6671   -18.7667    11.6066 C       6      r6     0.1132
   4217 O          -14.6718   -17.9945    12.2543 O       6      r6    -0.4978
   4218 C          -15.8257    18.9593    10.4156 C       0      r0    -0.0112
   4219 C          -11.4350    16.8442   -14.2008 C       0      r0    -0.0542
   4220 H          -11.1198    17.8452    17.0093 H       0      r0     0.0830
   4221 H          -12.2860   -18.7224    15.2315 H       0      r0     0.0998
   4222 H          -14.3160    18.6174   -17.8538 H       0      r0     0.0659
   4223 H          -15.5413    18.9138    17.6425 H       0      r0     0.1164
   4224 H          -12.4200   -16.1703   -16.6728 H       0      r0     0.0536
   4225 H          -13.0431    16.8455   -17.2087 H       0      r0     0.0758
   4226 H          -12.8810    16.2324   -18.5647 H       0      r0     0.0328
   4227 H          -15.2640   -16.9880    15.7305 H       0      r0     0.0679
   4228 H          -13.8702   -16.6463    14.8071 H       0      r0     0.0860
   4229 H          -16.2394   -15.3711    18.2201 H       0      r0     0.0553
   4230 H           -9.6300    18.6144   -13.9761 H       0      r0     0.0565
   4231 H          -10.4079   -17.1354   -15.3633 H       0      r0     0.0505
   4232 H          -18.0804   -15.0568    16.3995 H       0      r0     0.0474
   4233 H           17.7262   -16.7800    14.8342 H       0      r0     0.0573
   4234 H           -8.5543    15.6033   -17.2857 H       0      r0     0.0833
   4235 H          -11.5296    14.6058   -17.4068 H       0      r0     0.0950
   4236 H          -14.7668    17.3616    14.9886 H       0      r0     0.0746
   4237 H           16.8209    13.8588    15.1785 H       0      r0     0.2974
   4238 H          -16.6205    18.2630    10.1197 H       0      r0     0.0713
   4239 H          -15.1571   -18.5496     9.6209 H       0      r0     0.0949
   4240 H          -10.6167    16.6047   -13.5613 H       0      r0     0.0356
   4241 H          -12.1752    16.0597   -14.3454 H       0      r0     0.0512
   4242 C          -18.5931    14.5480    15.3852 C       6      r6     0.1098
   4243 C          -17.6098    14.0790    16.4230 C       6      r6    -0.0395
   4244 C          -17.9597    13.5383    17.6190 C       6      r6    -0.0113
   4245 C           17.9748    13.7932    17.7427 C       6      r6     0.0141
   4246 C           15.9611    15.2373    17.5483 C       5      r5     0.1587
   4247 O           15.4784    15.5166    16.3235 O       5      r5    -0.5006
   4248 C           16.5005    16.0709    15.5697 C       5      r5     0.1510
   4249 C           17.8636    15.7062    16.1264 C       6      r6     0.0102
   4250 C           17.4573    15.1562    17.5522 C       6      r6     0.0135
   4251 C           16.3842    16.9830    14.5876 C       0      r0     0.0096
   4252 C          -17.7558    15.1313    14.1274 C       0      r0     0.0061
   4253 C           17.0255    12.7144    18.3556 C       0      r0    -0.0102
   4254 C           15.2208    15.0594    18.7211 C       0      r0     0.0117
   4255 O           17.6874    13.5737    14.8672 O       0      r0    -0.5763
   4256 C          -17.8719    18.3071    13.1412 C       5      r5     0.1053
   4257 C           18.4659    18.4393    12.1011 C       5      r5    -0.0338
   4258 C           17.2257    18.0329    12.6064 C       5      r5    -0.0425
   4259 C           17.4758    17.6193    13.8817 C       5      r5     0.1006
   4260 O          -18.4787    17.7885    14.5098 O       5      r5    -0.4785
   4261 O           17.3085    15.0027   -17.3645 O       5      r5    -0.4605
   4262 C           15.7889    14.8948   -17.5568 C       5      r5     0.0919
   4263 C           15.0624    14.5538   -16.4391 C       5      r5    -0.0466
   4264 C           16.1117    14.4420   -15.4964 C       5      r5     0.0139
   4265 C           17.3330    14.7326   -16.0342 C       5      r5     0.3542
   4266 O          -17.3662    14.6108    11.7114 O       0      r0    -0.4699
   4267 C          -15.3908    12.1529    11.6039 C       0      r0     0.1247
   4268 C          -16.2672    11.9664    12.4797 C       0      r0     0.0051
   4269 C          -16.8290    13.0917    13.5085 C       0      r0     0.0098
   4270 C          -17.2314    14.1819    13.1509 C       0      r0     0.1367
   4271 C           17.6435    11.2850    18.3653 C       5      r5     0.1506
   4272 C           16.9531    10.3281    17.7125 C       5      r5    -0.0105
   4273 C           17.7751     9.1880    17.7848 C       5      r5     0.0145
   4274 C          -18.3314     9.4880    18.5617 C       5      r5     0.1305
   4275 O          -18.4445    11.0649   -18.6380 O       5      r5    -0.4607
   4276 C          -17.4103     8.7849   -18.6250 C       0      r0     0.0205
   4277 C          -16.0653    18.8665    14.0099 C       6      r6     0.0433
   4278 H          -16.5631    13.8695    16.1849 H       0      r0     0.0267
   4279 H          -17.4120    12.8745    18.2568 H       0      r0     0.1117
   4280 H           18.4825    16.5543    16.2130 H       0      r0     0.1003
   4281 H           17.8818    15.8682    18.2541 H       0      r0     0.1120
   4282 H           15.3914    17.1811    14.1670 H       0      r0     0.1086
   4283 H          -18.4139    15.8658    13.6162 H       0      r0     0.1134
   4284 H          -16.9556    15.7428    14.5243 H       0      r0     0.0540
   4285 H           16.6955    12.9147   -18.1742 H       0      r0     0.0968
   4286 H           15.9692    12.7202    17.9776 H       0      r0     0.0807
   4287 H           14.1158    14.9702    18.7092 H       0      r0     0.0725
   4288 H           18.5783    18.8602    11.1309 H       0      r0     0.0709
   4289 H           16.3254    18.0147    12.0100 H       0      r0     0.0369
   4290 H           13.9876    14.5162   -16.2939 H       0      r0     0.0434
   4291 H           15.9126    14.2335   -14.4776 H       0      r0     0.0707
   4292 H          -16.5953    10.9199    12.5843 H       0      r0     0.0853
   4293 H          -16.7397    12.8219    14.5163 H       0      r0     0.0568
   4294 H           16.0242    10.4165    17.1744 H       0      r0     0.0416
   4295 H           17.5156     8.2295    17.5143 H       0      r0     0.0733
   4296 H          -17.4355     7.7409    18.6475 H       0      r0     0.0883
   4297 H          -16.4968     9.1130   -18.1561 H       0      r0     0.1093
   4298 H          -10.3139    18.4230   -17.9539 H       0      r0     0.3628
   4299 H          -12.6182    16.8321    14.7857 H       0      r0     0.2958
   4300 C            9.5560    13.6649   -11.8187 C       0      r0     0.1735
   4301 C            9.1349    13.3460   -10.4901 C       0      r0     0.0154
   4302 C            9.3792    12.3532    -9.6128 C       0      r0    -0.0241
   4303 C           10.1687    11.1363    -9.7335 C       0      r0     0.1813
   4304 C           10.5437    10.5733    -8.2899 C       0      r0    -0.0161
   4305 O           10.5860    10.5701   -10.6654 O       0      r0    -0.4873
   4306 O            8.9090    14.7101   -12.4201 O       0      r0    -0.4500
   4307 C           11.8450    11.1447    -7.7635 C       5      r5     0.1214
   4308 C           11.9075    11.6577    -6.5085 C       5      r5    -0.0324
   4309 C           13.2459    12.0511    -6.3147 C       5      r5    -0.0243
   4310 C           14.0648    11.7009    -7.4659 C       5      r5     0.0860
   4311 O           13.0269    11.1550    -8.5397 O       5      r5    -0.4704
   4312 C           15.2706    11.8057    -7.5193 C       0      r0    -0.0380
   4313 C           10.6262    13.0175   -12.3461 C       0      r0     0.0260
   4314 C           12.5673    12.7916   -16.2366 C       0      r0    -0.0101
   4315 C           12.8714    12.1643   -15.0511 C       0      r0    -0.0487
   4316 C           12.1362    12.3088   -13.7479 C       0      r0    -0.0323
   4317 C           11.3252    13.3288   -13.5957 C       0      r0     0.1470
   4318 O           11.0504    14.4285   -14.4329 O       0      r0    -0.4603
   4319 H            8.4267    14.1054   -10.1986 H       0      r0     0.1293
   4320 H            8.8579    12.3339    -8.6887 H       0      r0     0.0460
   4321 H            9.8147    10.7973    -7.5350 H       0      r0     0.0228
   4322 H           10.4791     9.4613    -8.2154 H       0      r0     0.0589
   4323 H           11.0736    11.7269    -5.7253 H       0      r0     0.0838
   4324 H           13.6370    12.4606    -5.3924 H       0      r0     0.0719
   4325 H           15.8552    12.2396    -6.7144 H       0      r0     0.0572
   4326 H           15.8171    11.4863    -8.3614 H       0      r0     0.0852
   4327 H           11.0742    15.7346   -12.5598 H       0      r0     0.3345
   4328 H           11.0578    12.2781   -11.7124 H       0      r0     0.0893
   4329 H           13.7786    11.5581   -15.2042 H       0      r0     0.0390
   4330 H           12.2672    11.5574   -12.9360 H       0      r0     0.0408
   4331 C            8.2256     3.5045   -17.6726 C       0      r0     0.1859
   4332 C            8.7334     4.1631   -16.4651 C       0      r0    -0.0144
   4333 C            8.2960     4.0954   -15.2523 C       0      r0    -0.0160
   4334 C            7.1756     3.2710   -14.6448 C       0      r0     0.1874
   4335 C            6.9713     1.8350   -15.1418 C       0      r0     0.0149
   4336 O            6.5728     3.6266   -13.7133 O       0      r0    -0.4860
   4337 O            7.2737     2.8238   -17.7283 O       0      r0    -0.4812
   4338 C            7.4908     0.8124   -14.1421 C       5      r5     0.1352
   4339 C            7.4381     1.0692   -12.8257 C       5      r5     0.0018
   4340 C            7.8504    -0.1328   -12.2105 C       5      r5    -0.0225
   4341 C            8.2026    -1.1473   -13.1810 C       5      r5     0.0785
   4342 O            7.9277    -0.4269   -14.5967 O       5      r5    -0.4849
   4343 C            8.5587    -2.2847   -12.9730 C       0      r0    -0.0483
   4344 C            8.9091     3.5868    18.4584 C       0      r0     0.0119
   4345 C           10.5812     7.3496    17.3974 C       0      r0     0.1535
   4346 C           10.3103     6.4099    16.4084 C       0      r0     0.0051
   4347 C            9.7393     5.1276    16.7551 C       0      r0    -0.0292
   4348 C            9.7261     4.8128    18.1675 C       0      r0     0.1454
   4349 O           10.2526     5.3623   -18.4541 O       0      r0    -0.5120
   4350 H            9.5336     4.8634   -16.7153 H       0      r0     0.0986
   4351 H            8.6948     4.7752   -14.4648 H       0      r0     0.0730
   4352 H            5.9698     1.6534   -15.4866 H       0      r0     0.0639
   4353 H            7.4367     1.6604   -16.1455 H       0      r0     0.1223
   4354 H            7.1689     1.9555   -12.3042 H       0      r0     0.1008
   4355 H            7.8856    -0.3606   -11.1950 H       0      r0     0.0560
   4356 H            8.6841    -2.7267   -12.0100 H       0      r0     0.0765
   4357 H            8.7935    -3.0345   -13.7668 H       0      r0     0.0382
   4358 H            9.4220     2.6297    18.1743 H       0      r0     0.1099
   4359 H            8.0930     3.5876    17.7434 H       0      r0     0.0579
   4360 H           10.3433     6.6020    15.3281 H       0      r0     0.1128
   4361 H            9.4682     4.4165    16.0577 H       0      r0     0.0668
   4362 C           -7.6952    -5.7644     3.5717 C       5      r5     0.1175
   4363 O           -8.8567    -4.8252     3.2155 O       5      r5    -0.4793
   4364 C           -8.1217    -4.5659     1.7813 C       5      r5     0.0888
   4365 C           -6.9268    -5.1290     1.5301 C       5      r5    -0.0392
   4366 C           -6.6155    -5.8722     2.6693 C       5      r5    -0.0096
   4367 C           -7.7149    -6.5218     4.7147 C       0      r0    -0.0112
   4368 C           -8.6077    -3.5444    -0.4984 C       5      r5     0.1335
   4369 O           -9.3150    -2.6615    -1.2824 O       5      r5    -0.4752
   4370 C           -8.4519    -2.8590    -2.5583 C       5      r5     0.1170
   4371 C           -7.3832    -3.8188    -2.4281 C       5      r5    -0.0005
   4372 C           -7.5191    -4.2299    -1.1318 C       5      r5    -0.0021
   4373 C           -8.8029    -3.7299     0.8659 C       0      r0     0.0101
   4374 C           -6.7472    -7.4773     5.0937 C       5      r5     0.1233
   4375 C           -6.9912    -8.1717     6.2963 C       5      r5    -0.0213
   4376 C           -6.1857    -9.2937     6.6245 C       5      r5    -0.0301
   4377 C           -5.3228    -9.2941     5.5135 C       5      r5     0.0663
   4378 O           -5.6991    -8.0184     4.3910 O       5      r5    -0.4775
   4379 C           -4.4958   -10.2003     5.5578 C       0      r0    -0.0386
   4380 H           -6.2273    -4.9969     0.6757 H       0      r0     0.0475
   4381 H           -5.6242    -6.3646     2.8138 H       0      r0     0.0865
   4382 H           -8.5295    -6.5100     5.3963 H       0      r0     0.0489
   4383 H           -6.6560    -4.0980    -3.1373 H       0      r0     0.0807
   4384 H           -6.9093    -4.9760    -0.6428 H       0      r0     0.0711
   4385 H           -9.6443    -3.0926     1.0552 H       0      r0     0.1399
   4386 H           -7.8010    -7.7725     6.8987 H       0      r0     0.0639
   4387 H           -6.1776   -10.0671     7.4373 H       0      r0     0.0791
   4388 H           -4.4726   -10.9513     6.3636 H       0      r0     0.0596
   4389 H           -3.7484   -10.3012     4.7786 H       0      r0     0.1126
   4390 C           -7.7533     9.7032     2.6676 C       5      r5     0.1154
   4391 O           -6.8398    10.8162     3.1978 O       5      r5    -0.4610
   4392 C           -7.9069    11.8891     2.5804 C       5      r5     0.0762
   4393 C           -9.0397    11.4702     2.0161 C       5      r5    -0.0362
   4394 C           -8.9501    10.0290     2.0907 C       5      r5    -0.0055
   4395 C           -7.2804     8.3763     2.7479 C       0      r0     0.0075
   4396 C           -8.0971    14.2975     1.8362 C       5      r5     0.1222
   4397 O           -7.9212    15.6491     2.1064 O       5      r5    -0.4878
   4398 C           -8.8658    16.1345     0.8971 C       5      r5     0.1123
   4399 C           -9.2774    15.0913     0.0589 C       5      r5    -0.0149
   4400 C           -8.8929    13.9063     0.7486 C       5      r5    -0.0320
   4401 C           -7.5739    13.2681     2.6737 C       0      r0    -0.0108
   4402 C           -7.8307     7.2987     2.0386 C       5      r5     0.1343
   4403 C           -7.3038     6.0044     2.1178 C       5      r5    -0.0029
   4404 C           -7.9155     5.1035     1.2083 C       5      r5    -0.0232
   4405 C           -8.8132     6.0349     0.6071 C       5      r5     0.1052
   4406 O           -8.8817     7.5199     1.1496 O       5      r5    -0.4912
   4407 C           -9.4700     5.4580    -0.3021 C       0      r0    -0.0104
   4408 H           -9.8556    12.0127     1.6171 H       0      r0     0.0647
   4409 H           -9.7848     9.3594     1.7986 H       0      r0     0.1000
   4410 H           -6.5508     8.2117     3.4845 H       0      r0     0.0705
   4411 H           -9.8694    15.2020    -0.8237 H       0      r0     0.0887
   4412 H           -9.0763    12.8945     0.4647 H       0      r0     0.0386
   4413 H           -6.8684    13.5236     3.4431 H       0      r0     0.0785
   4414 H           -6.4879     5.7494     2.7505 H       0      r0     0.0621
   4415 H           -7.7720     4.0578     1.0975 H       0      r0     0.0650
   4416 H           -9.3417     4.3817    -0.4283 H       0      r0     0.1021
   4417 H          -10.2285     5.8474    -0.8968 H       0      r0     0.0763
   4418 C           16.3394   -12.1939    -9.7795 C       5      r5     0.1503
   4419 O           15.4906   -12.9640   -10.6135 O       5      r5    -0.5136
   4420 C           15.9884   -12.1216   -11.8937 C       5      r5     0.0988
   4421 C           16.6693   -10.8746   -11.6778 C       5      r5    -0.0234
   4422 C           16.9030   -10.9384   -10.3179 C       5      r5    -0.0090
   4423 C           16.4855   -12.4654    -8.5014 C       0      r0     0.1564
   4424 C           15.9791   -12.3514   -13.1576 C       0      r0    -0.0010
   4425 H           16.9260   -10.0971   -12.3834 H       0      r0     0.0842
   4426 H           17.4954   -10.2770    -9.7586 H       0      r0     0.0921
   4427 H           15.9252   -13.2926    -8.0749 H       0      r0     0.0810
   4428 H           15.8291   -12.6982   -14.1634 H       0      r0     0.1291
   4429 C           12.7912    14.7146    -7.6367 C       0      r0     0.1093
   4430 O           12.2594    15.8787    -6.6440 O       0      r0    -0.4665
   4431 C           14.9633    15.7664    -5.8113 C       0      r0    -0.0025
   4432 C           15.1868    14.7923    -6.8731 C       0      r0    -0.0351
   4433 C           14.1427    14.2948    -7.7610 C       0      r0    -0.0236
   4434 C           12.0495    14.0801    -8.5279 C       0      r0    -0.0003
   4435 C           14.7109    16.4859    -4.8957 C       0      r0    -0.0286
   4436 H           16.2197    14.4923    -7.0344 H       0      r0     0.0720
   4437 H           14.4467    13.6569    -8.5954 H       0      r0     0.0652
   4438 H           11.3943    13.5868    -9.2115 H       0      r0     0.0677
   4439 H           14.4702    17.1645    -4.0860 H       0      r0     0.0481
   4440 C           12.5840    15.8336    10.9503 C       6      r6     0.1239
   4441 C           13.3430    16.0104     9.6140 C       6      r6    -0.0455
   4442 C           14.2647    15.1399     9.2196 C       6      r6    -0.0495
   4443 C           14.2169    14.0389    10.0961 C       6      r6    -0.0211
   4444 C           13.8730    13.1304    12.4273 C       5      r5     0.1481
   4445 O           12.7539    13.5426    13.2267 O       5      r5    -0.4458
   4446 C           12.8934    14.8987    13.2891 C       5      r5     0.1754
   4447 C           13.5888    15.4870    12.1043 C       6      r6     0.0121
   4448 C           14.3467    14.2391    11.5739 C       6      r6     0.0066
   4449 C           12.5567    15.7438    14.3076 C       0      r0     0.0205
   4450 C           12.0002    17.2585    11.3238 C       0      r0    -0.0071
   4451 C           14.4270    12.6196     9.5744 C       0      r0    -0.0140
   4452 C           14.5997    11.9769    12.5147 C       0      r0    -0.0029
   4453 O           11.4834    14.9690    10.9223 O       0      r0    -0.5735
   4454 C           13.5889   -18.7178    14.6199 C       5      r5     0.1206
   4455 C           12.9016   -18.9112    15.8424 C       5      r5    -0.0170
   4456 C           12.4637    17.6909    15.7294 C       5      r5    -0.0114
   4457 C           12.8258    17.1274    14.4811 C       5      r5     0.1367
   4458 O           13.5608    17.9162    13.6105 O       5      r5    -0.4994
   4459 O           16.5534    12.4812    11.1236 O       5      r5    -0.4704
   4460 C           15.8487    11.6373    11.8671 C       5      r5     0.1332
   4461 C           16.3801    10.3375    12.1332 C       5      r5    -0.0312
   4462 C           17.6659    10.1488    11.5412 C       5      r5    -0.0489
   4463 C           17.7961    11.4481    10.9556 C       5      r5     0.1057
   4464 O           10.5344   -18.8629    10.4208 O       5      r5    -0.4841
   4465 C            9.3994   -18.9524     9.1569 C       5      r5     0.0684
   4466 C            9.7854    17.7695     8.4706 C       5      r5    -0.0259
   4467 C           10.7958    17.0767     9.1219 C       5      r5    -0.0058
   4468 C           11.1110    17.8516    10.2210 C       5      r5     0.1305
   4469 C           13.3721    12.3664     8.4457 C       5      r5     0.1366
   4470 C           12.2967    13.2265     8.5985 C       5      r5    -0.0170
   4471 C           11.5525    12.9841     7.4586 C       5      r5    -0.0250
   4472 C           12.2651    12.0039     6.6196 C       5      r5     0.0740
   4473 O           13.5752    11.5178     7.4826 O       5      r5    -0.4602
   4474 C            8.5334   -18.1226     9.0116 C       0      r0    -0.0377
   4475 C          -18.3864    11.4868    10.3387 C       0      r0    -0.0285
   4476 H           13.2598    16.9393     9.0467 H       0      r0     0.0395
   4477 H           14.6726    15.2768     8.1951 H       0      r0     0.1173
   4478 H           14.2435    16.3548    12.3725 H       0      r0     0.0692
   4479 H           15.4098    14.3498    11.8225 H       0      r0     0.0828
   4480 H           11.9236    15.2885    15.1367 H       0      r0     0.0737
   4481 H           11.5209    17.3246    12.2778 H       0      r0     0.0758
   4482 H           12.7928    17.9603    11.5049 H       0      r0     0.0827
   4483 H           15.4617    12.4618     9.1638 H       0      r0     0.1021
   4484 H           14.2958    11.9243    10.4303 H       0      r0     0.0647
   4485 H           14.1773    11.2220    13.1450 H       0      r0     0.0582
   4486 H           12.7873   -18.1439    16.6715 H       0      r0     0.0777
   4487 H           11.9903    17.1511    16.5342 H       0      r0     0.0814
   4488 H           15.8739     9.5831    12.7275 H       0      r0     0.0784
   4489 H           18.3368     9.2957    11.5339 H       0      r0     0.0288
   4490 H            9.2062    17.3218     7.6765 H       0      r0     0.0417
   4491 H           11.1564    16.0872     8.8890 H       0      r0     0.0882
   4492 H           12.1108    13.9483     9.4555 H       0      r0     0.1270
   4493 H           10.5959    13.4584     7.2653 H       0      r0     0.0614
   4494 H            7.7583   -18.1490     8.2053 H       0      r0     0.0572
   4495 H            8.4886   -17.2643     9.6769 H       0      r0     0.0704
   4496 H          -17.6881    10.7036    10.3005 H       0      r0     0.0267
   4497 H          -18.1710    12.4166     9.8560 H       0      r0     0.1393
   4498 C           10.4369     6.3255     7.7898 C       6      r6     0.0692
   4499 C           11.2865     6.0214     8.9737 C       6      r6    -0.0518
   4500 C           10.4769     5.2395     9.6207 C       6      r6    -0.0184
   4501 C            9.0992     5.1312     8.9756 C       6      r6     0.1166
   4502 C            7.1068     6.7893     8.8190 C       5      r5     0.1505
   4503 O            7.0118     7.2571     7.5386 O       5      r5    -0.4868
   4504 C            8.2842     7.8619     7.2783 C       5      r5     0.1335
   4505 C            9.4139     7.5403     8.2590 C       6      r6    -0.0230
   4506 C            8.5326     6.5809     9.2567 C       6      r6     0.0182
   4507 C            8.4615     8.7429     6.2793 C       0      r0     0.0193
   4508 C           11.2738     6.7832     6.5907 C       0      r0    -0.0183
   4509 C            8.3027     4.0463     9.6508 C       0      r0     0.0091
   4510 C            6.0465     6.5835     9.6592 C       0      r0     0.0120
   4511 O            9.3540     5.0648     7.5849 O       5      r5    -0.4941
   4512 C           10.3424    11.4034     4.8148 C       0      r0     0.1328
   4513 C           11.1845    11.0621     5.9340 C       0      r0     0.0031
   4514 C           10.5682     9.8562     6.6033 C       0      r0    -0.0326
   4515 C            9.5158     9.6032     5.8935 C       0      r0     0.0845
   4516 O            9.0105    10.4941     4.4744 O       0      r0    -0.4399
   4517 O            7.2449     5.7255    11.6917 O       5      r5    -0.4770
   4518 C            6.0435     6.0266    10.9787 C       5      r5     0.1379
   4519 C            4.7943     5.7259    11.5152 C       5      r5    -0.0070
   4520 C            5.1361     5.1921    12.7750 C       5      r5    -0.0107
   4521 C            6.5470     5.0038    12.9884 C       5      r5     0.0945
   4522 O           12.9169     5.7067     4.9674 O       5      r5    -0.4590
   4523 C           13.2491     4.0873     4.6876 C       5      r5     0.0876
   4524 C           12.4182     3.3957     5.6214 C       5      r5    -0.0325
   4525 C           11.6578     4.3153     6.3905 C       5      r5    -0.0081
   4526 C           11.9582     5.5320     5.9181 C       5      r5     0.1543
   4527 C            6.9995     3.5865     8.9542 C       0      r0     0.1880
   4528 C            6.7730     4.2087     7.6948 C       0      r0     0.0046
   4529 C            5.5929     4.1329     6.9622 C       0      r0    -0.0177
   4530 C            4.2895     3.3596     7.3459 C       0      r0     0.2197
   4531 O            6.2339     2.8421     9.4936 O       0      r0    -0.4887
   4532 C           14.0044     3.6304     3.8540 C       0      r0    -0.0295
   4533 C            7.1745     4.3890    13.8262 C       0      r0    -0.0270
   4534 H           12.2895     6.2976     9.1505 H       0      r0     0.0420
   4535 H           10.6620     4.9155    10.6174 H       0      r0     0.0679
   4536 H            9.8315     8.4143     8.6931 H       0      r0     0.0237
   4537 H            8.5373     6.7512    10.3358 H       0      r0     0.0862
   4538 H            7.4373     8.7654     5.8537 H       0      r0     0.1235
   4539 H           10.7448     7.4097     5.8929 H       0      r0     0.0762
   4540 H           12.0920     7.4459     6.9336 H       0      r0     0.0488
   4541 H            8.9923     3.1988     9.8268 H       0      r0     0.1133
   4542 H            8.1651     4.3862    10.6626 H       0      r0     0.1169
   4543 H            5.0632     6.8481     9.2081 H       0      r0     0.0574
   4544 H           12.5815    12.3091     5.6034 H       0      r0     0.0767
   4545 H           10.8981     9.3192     7.4857 H       0      r0     0.0314
   4546 H            3.8361     5.9429    11.0507 H       0      r0     0.0722
   4547 H            4.3916     4.8922    13.4671 H       0      r0     0.0707
   4548 H           12.2717     2.3128     5.7275 H       0      r0     0.0475
   4549 H           10.9327     4.0757     7.1403 H       0      r0     0.1068
   4550 H            7.5818     4.9470     7.3071 H       0      r0     0.1528
   4551 H            5.3579     4.6813     6.0567 H       0      r0     0.0691
   4552 H           14.1352     2.5809     3.6986 H       0      r0     0.0454
   4553 H           14.7114     4.1876     3.2589 H       0      r0     0.0756
   4554 H            6.6796     3.8862    14.6626 H       0      r0     0.0432
   4555 H            8.2508     4.2054    13.9243 H       0      r0     0.1195
   4556 C           11.4824     9.4760    11.6127 C       6      r6    -0.0420
   4557 C           11.3341    10.8131    11.1118 C       6      r6    -0.0465
   4558 C           10.5560    11.6891    11.7220 C       6      r6     0.0049
   4559 C            9.7665    11.3058    12.9547 C       6      r6     0.1320
   4560 C            8.3789     9.3421    13.7772 C       0      r0     0.1847
   4561 O            9.0130     9.1084    14.7566 O       0      r0    -0.5264
   4562 C           10.3723     7.5964    12.8074 C       0      r0    -0.0152
   4563 C           10.4191     8.9491    12.3280 C       6      r6    -0.0197
   4564 C            9.2309     9.8774    12.6417 C       6      r6     0.0209
   4565 C           11.3352     6.6172    12.7911 C       0      r0    -0.0160
   4566 C           12.8585     8.8644    11.4142 C       0      r0    -0.0490
   4567 C            8.6366    12.3892    13.1431 C       0      r0    -0.0016
   4568 C            6.9341     9.0996    13.5532 C       0      r0     0.0009
   4569 O           10.5481    11.1950    14.2288 O       0      r0    -0.5477
   4570 C           10.5564     3.3766    13.9733 C       5      r5     0.0885
   4571 C           11.7999     3.0437    13.3833 C       5      r5    -0.0380
   4572 C           12.1719     4.3387    12.9502 C       5      r5    -0.0177
   4573 C           11.1597     5.2981    13.2363 C       5      r5     0.1429
   4574 O           10.0417     4.8756    13.9222 O       5      r5    -0.4843
   4575 O            6.8234    10.2685    11.3134 O       5      r5    -0.4880
   4576 C            6.2884     9.5625    12.4176 C       5      r5     0.1229
   4577 C            5.0171     9.0037    12.5047 C       5      r5    -0.0318
   4578 C            4.4517     9.5775    11.3052 C       5      r5    -0.0283
   4579 C            5.4311    10.2843    10.5799 C       5      r5     0.0989
   4580 O           14.6004     7.9317    13.0200 O       5      r5    -0.4869
   4581 C           14.6244     8.1411    14.6968 C       5      r5     0.0659
   4582 C           13.5264     8.9152    15.1295 C       5      r5    -0.0250
   4583 C           12.8252     9.1098    13.9021 C       5      r5    -0.0043
   4584 C           13.4766     8.6176    12.8386 C       5      r5     0.1319
   4585 C            8.4705    13.4226    11.9802 C       6      r6     0.0843
   4586 C            8.0676    13.1826    10.5894 C       6      r6    -0.0112
   4587 C            7.2150    15.1065    10.9122 C       6      r6     0.0111
   4588 C            8.4814    15.8863    11.5864 C       6      r6     0.1252
   4589 O            9.2626    14.9457    12.2634 O       6      r6    -0.4908
   4590 C            8.6068    17.0993    11.5830 C       0      r0    -0.0321
   4591 C           10.0228     2.3117    14.4603 C       0      r0    -0.0458
   4592 H           11.9342    10.9756    10.2743 H       0      r0     0.0491
   4593 H           10.4030    12.6533    11.3640 H       0      r0     0.1073
   4594 H            9.4309     7.3044    13.3082 H       0      r0     0.1242
   4595 H            8.5576     9.8779    11.7291 H       0      r0     0.1083
   4596 H           12.2561     6.7958    12.2575 H       0      r0     0.0655
   4597 H           12.9444     8.0549    10.6832 H       0      r0     0.0501
   4598 H           13.6176     9.5169    10.8485 H       0      r0     0.0433
   4599 H            7.6733    11.8805    13.2061 H       0      r0     0.0589
   4600 H            8.6595    12.8101    14.1656 H       0      r0     0.0899
   4601 H            6.3808     8.5355    14.2829 H       0      r0     0.0556
   4602 H           12.1769     2.0724    13.2929 H       0      r0     0.0441
   4603 H           13.1068     4.5608    12.4275 H       0      r0     0.0664
   4604 H            4.6585     8.2341    13.2041 H       0      r0     0.0426
   4605 H            3.4551     9.4179    10.8979 H       0      r0     0.0522
   4606 H           13.3332     9.2009    16.1532 H       0      r0     0.0840
   4607 H           11.8627     9.6815    13.8858 H       0      r0     0.1150
   4608 H            8.0482    12.2799    10.0409 H       0      r0     0.0747
   4609 H            2.6872    13.5597     6.8583 H       0      r0     0.3606
   4610 H            7.9070    17.7421    11.0897 H       0      r0     0.0345
   4611 H            9.5311    17.5415    11.9850 H       0      r0     0.0754
   4612 H           10.6459     1.4410    14.3976 H       0      r0     0.0641
   4613 H            9.0578     2.2103    14.9771 H       0      r0     0.0469
   4614 C            3.1003    12.1115     8.2372 C       6      r6     0.1374
   4615 C            3.4427    10.5886     8.3026 C       6      r6    -0.0438
   4616 C            2.5234     9.6773     8.4185 C       6      r6    -0.0554
   4617 C            1.2712    10.3995     8.6114 C       6      r6     0.0076
   4618 C           -0.0330    12.3839     9.7456 C       5      r5     0.1433
   4619 O            0.2728    13.7397     9.3959 O       5      r5    -0.4898
   4620 C            1.6234    13.8734     9.6456 C       5      r5     0.1622
   4621 C            2.3967    12.5490     9.5706 C       6      r6     0.0217
   4622 C            1.1982    11.5243     9.7534 C       6      r6     0.0175
   4623 C            2.2303    15.0535    10.0498 C       0      r0     0.0006
   4624 C            4.5223    12.7257     8.1556 C       0      r0     0.0222
   4625 C            0.1551     9.9587     7.9179 C       0      r0     0.0276
   4626 C           -1.2732    11.9684    10.0924 C       0      r0     0.0160
   4627 O            2.3495    12.6182     7.1992 O       0      r0    -0.5448
   4628 C            5.8535    15.3225    10.7156 C       5      r5     0.1005
   4629 C            5.2975    16.6322    10.7699 C       5      r5    -0.0232
   4630 C            3.8913    16.6751    10.5270 C       5      r5    -0.0154
   4631 C            3.6076    15.3506    10.3116 C       5      r5     0.1207
   4632 O            4.6548    14.3593    10.3653 O       5      r5    -0.5019
   4633 O           -0.7053     9.5239    10.5964 O       0      r0    -0.5655
   4634 C           -1.5417    10.5991    10.4290 C       0      r0     0.1451
   4635 C           -2.8849    10.5797    10.5410 C       0      r0    -0.0108
   4636 C           -3.5343     9.2737    10.8531 C       0      r0    -0.0140
   4637 C           -2.9321     7.9977    10.9359 C       0      r0     0.1311
   4638 O            6.2100    13.4404     6.6164 O       0      r0    -0.4661
   4639 C            5.5871    10.0403     4.0787 C       0      r0     0.1842
   4640 C            5.5974    11.2956     4.6636 C       0      r0     0.0123
   4641 C            4.9414    11.5575     6.0126 C       0      r0     0.0148
   4642 C            5.2313    12.4707     6.8422 C       0      r0     0.1660
   4643 C            0.0983     9.1934     6.7290 C       5      r5     0.1419
   4644 C            1.2504     9.0426     5.9259 C       5      r5    -0.0248
   4645 C            0.8097     8.4611     4.8191 C       5      r5    -0.0293
   4646 C           -0.6356     8.2504     4.9002 C       5      r5     0.1157
   4647 O           -1.1579     8.7559     6.1925 O       5      r5    -0.4454
   4648 C           -1.3370     7.7039     3.9051 C       0      r0    -0.0411
   4649 C            7.1764    13.8365    11.3652 C       6      r6     0.0246
   4650 H            4.4807    10.3291     8.1824 H       0      r0     0.0393
   4651 H            2.6270     8.6194     8.3557 H       0      r0     0.0424
   4652 H            3.1667    12.5138    10.2939 H       0      r0     0.0624
   4653 H            1.0420    11.0447    10.7240 H       0      r0     0.1292
   4654 H            1.4211    15.7558    10.0109 H       0      r0     0.0647
   4655 H            4.5118    13.7682     8.4990 H       0      r0     0.1514
   4656 H            5.1764    12.3129     8.9335 H       0      r0     0.0595
   4657 H           -0.7158    10.4430     8.3732 H       0      r0     0.1035
   4658 H           -1.3196     8.7175    10.7295 H       0      r0     0.2738
   4659 H           -2.0264    12.7192    10.0171 H       0      r0     0.0874
   4660 H            5.7933    17.5891    10.9559 H       0      r0     0.0444
   4661 H            3.3051    17.5399    10.5712 H       0      r0     0.1011
   4662 H           -3.5242    11.4315    10.3760 H       0      r0     0.0895
   4663 H           -4.6379     9.3715    10.9410 H       0      r0     0.0694
   4664 H            6.2408    11.9779     4.1831 H       0      r0     0.1079
   4665 H            4.1955    10.8768     6.3209 H       0      r0     0.0644
   4666 H            2.2272     9.3608     6.2089 H       0      r0     0.0535
   4667 H            1.4273     8.2385     3.9527 H       0      r0     0.0520
   4668 H           -0.9634     7.3838     2.9527 H       0      r0     0.0601
   4669 H           -2.3793     7.6742     4.1315 H       0      r0     0.0768
   4670 H           10.2050    10.4069    14.7135 H       0      r0     0.3438
   4671 H           10.7282    15.1468    11.6003 H       0      r0     0.3680
   4672 B           18.6520   -18.9696    18.7728 B       8     BOX     0.0000
   4673 B          -18.6520   -18.9696    18.7728 B       8     BOX     0.0000
   4674 B          -18.6520    18.9696    18.7728 B       8     BOX     0.0000
   4675 B           18.6520    18.9696    18.7728 B       8     BOX     0.0000
   4676 B           18.6520   -18.9696   -18.7728 B       8     BOX     0.0000
   4677 B          -18.6520   -18.9696   -18.7728 B       8     BOX     0.0000
   4678 B          -18.6520    18.9696   -18.7728 B       8     BOX     0.0000
   4679 B           18.6520    18.9696   -18.7728 B       8     BOX     0.0000
@<TRIPOS>BOND
     1      1      2      1
     2      1      7      1
     3      1     14      1
     4      2      3      1
     5      2     20      1
     6      3      4      1
     7      3     21      1
     8      4      5      1
     9      4      6      1
    10      5      8      1
    11      5     22      1
    12      5     23      1
    13      6     46      1
    14      8      9      1
    15      8     12      1
    16      9     10      1
    17      9     24      1
    18     10     11      1
    19     10     25      1
    20     11     12      1
    21     11     13      1
    22     13     26      1
    23     13     27      1
    24     14     18      1
    25     14     28      1
    26     14     29      1
    27     15     16      1
    28     15    859      1
    29     16     17      1
    30     16     30      1
    31     17     18      1
    32     17     31      1
    33     18     19      1
    34     32     33      1
    35     32     38      1
    36     32     45      1
    37     33     34      1
    38     33     51      1
    39     34     35      1
    40     34     52      1
    41     35     36      1
    42     35     37      1
    43     36     39      1
    44     36     53      1
    45     36     54      1
    46     39     40      1
    47     39     43      1
    48     40     41      1
    49     40     55      1
    50     41     42      1
    51     41     56      1
    52     42     43      1
    53     42     44      1
    54     44     57      1
    55     44     58      1
    56     45     49      1
    57     45     59      1
    58     45     60      1
    59     46     47      1
    60     47     48      1
    61     47     61      1
    62     48     49      1
    63     48     62      1
    64     49     50      1
    65     50    913      1
    66     63     64      1
    67     63     67      1
    68     63     68      1
    69     64     65      1
    70     65     66      1
    71     65     74      1
    72     66     67      1
    73     66     81      1
    74     67     82      1
    75     68     75      1
    76     68     83      1
    77     69     70      1
    78     69     73      1
    79     69     74      1
    80     70     71      1
    81     72     84      1
    82     73     85      1
    83     74     86      1
    84     75     76      1
    85     75     79      1
    86     76     77      1
    87     76     87      1
    88     77     78      1
    89     77     88      1
    90     78     79      1
    91     78     80      1
    92     80     89      1
    93     80     90      1
    94     91     92      1
    95     91     95      1
    96     91     96      1
    97     92     93      1
    98     93     94      1
    99     93    102      1
   100     94     95      1
   101     94    109      1
   102     95    110      1
   103     96    103      1
   104     96    111      1
   105     97     98      1
   106     97    101      1
   107     97    102      1
   108     98    101      1
   109     99    100      1
   110     99   2399      1
   111    100    101      1
   112    100    112      1
   113    101    113      1
   114    102    114      1
   115    103    104      1
   116    103    107      1
   117    104    105      1
   118    104    115      1
   119    105    106      1
   120    106    107      1
   121    106    108      1
   122    108    118      1
   123    119    120      1
   124    119    123      1
   125    119    124      1
   126    120    121      1
   127    121    122      1
   128    121    125      1
   129    122    123      1
   130    122    126      1
   131    123    127      1
   132    124    128      1
   133    124   2957      1
   134    125    129      1
   135    125   2379      1
   136    130    131      1
   137    130    134      1
   138    130    135      1
   139    131    132      1
   140    132    133      1
   141    132    136      1
   142    133    134      1
   143    133    137      1
   144    134    138      1
   145    135    139      1
   146    135   2632      1
   147    136    140      1
   148    141    146      1
   149    142    143      1
   150    142    476      1
   151    144    145      1
   152    144    148      1
   153    145    149      1
   154    146    150      1
   155    147    151      1
   156    152    153      1
   157    152    156      1
   158    152    157      1
   159    153    154      1
   160    154    155      1
   161    154    158      1
   162    155    156      1
   163    155    159      1
   164    156    160      1
   165    157    161      1
   166    158    162      1
   167    158   2976      1
   168    163    164      1
   169    163    167      1
   170    163    168      1
   171    164    165      1
   172    165    166      1
   173    165    169      1
   174    166    167      1
   175    166    170      1
   176    167    171      1
   177    168    172      1
   178    169    173      1
   179    169   1830      1
   180    174    175      1
   181    174    181      1
   182    174    184      1
   183    175    176      1
   184    175    210      1
   185    176    177      1
   186    176    211      1
   187    177    182      1
   188    177    185      1
   189    177    187      1
   190    178    179      1
   191    178    182      1
   192    178    186      1
   193    179    180      1
   194    180    181      1
   195    180    183      1
   196    181    182      1
   197    181    212      1
   198    182    213      1
   199    183    191      1
   200    183    214      1
   201    184    202      1
   202    184    215      1
   203    184    216      1
   204    185    203      1
   205    185    217      1
   206    185    218      1
   207    186    194      1
   208    186    219      1
   209    187    405      1
   210    188    189      1
   211    188    192      1
   212    189    190      1
   213    189    220      1
   214    190    191      1
   215    190    221      1
   216    191    192      1
   217    193    194      1
   218    193    197      1
   219    194    195      1
   220    195    196      1
   221    195    222      1
   222    196    197      1
   223    196    223      1
   224    197    209      1
   225    198    199      1
   226    198    202      1
   227    199    200      1
   228    199    208      1
   229    200    201      1
   230    200    224      1
   231    201    202      1
   232    201    225      1
   233    203    204      1
   234    203    207      1
   235    204    205      1
   236    204    226      1
   237    205    206      1
   238    205    227      1
   239    206    207      1
   240    206    247      1
   241    206    278      1
   242    208    228      1
   243    208    229      1
   244    209    230      1
   245    209    231      1
   246    232    233      1
   247    232    239      1
   248    232    242      1
   249    232    245      1
   250    233    234      1
   251    233    268      1
   252    234    235      1
   253    234    269      1
   254    235    240      1
   255    235    243      1
   256    235    245      1
   257    236    237      1
   258    236    240      1
   259    236    244      1
   260    237    238      1
   261    238    239      1
   262    238    241      1
   263    239    240      1
   264    239    270      1
   265    240    271      1
   266    241    249      1
   267    241    272      1
   268    242    260      1
   269    242    273      1
   270    242    274      1
   271    243    261      1
   272    243    275      1
   273    243    276      1
   274    244    252      1
   275    244    277      1
   276    246    247      1
   277    246   1318      1
   278    247    248      1
   279    248    249      1
   280    248    279      1
   281    249    250      1
   282    250   3526      1
   283    251    252      1
   284    251    255      1
   285    252    253      1
   286    253    254      1
   287    253    280      1
   288    254    255      1
   289    254    281      1
   290    255    267      1
   291    256    257      1
   292    256    260      1
   293    257    258      1
   294    257    266      1
   295    258    259      1
   296    258    282      1
   297    259    260      1
   298    259    283      1
   299    261    262      1
   300    261    265      1
   301    262    263      1
   302    262    284      1
   303    263    264      1
   304    263    285      1
   305    264    265      1
   306    266    286      1
   307    266    287      1
   308    267    288      1
   309    267    289      1
   310    290    291      1
   311    290    297      1
   312    290    300      1
   313    291    292      1
   314    291    326      1
   315    292    293      1
   316    292    327      1
   317    293    298      1
   318    293    301      1
   319    293    303      1
   320    294    295      1
   321    294    298      1
   322    294    302      1
   323    295    296      1
   324    296    297      1
   325    296    299      1
   326    297    298      1
   327    297    328      1
   328    298    329      1
   329    299    307      1
   330    299    330      1
   331    300    318      1
   332    300    331      1
   333    300    332      1
   334    301    319      1
   335    301    333      1
   336    301    334      1
   337    302    310      1
   338    302    335      1
   339    303    404      1
   340    304    305      1
   341    304    308      1
   342    304    325      1
   343    305    306      1
   344    305    336      1
   345    306    307      1
   346    306    337      1
   347    307    308      1
   348    309    310      1
   349    309    313      1
   350    310    311      1
   351    311    312      1
   352    311    338      1
   353    312    313      1
   354    312    339      1
   355    314    318      1
   356    314   3775      1
   357    315    316      1
   358    315   2471      1
   359    316    317      1
   360    316    340      1
   361    317    318      1
   362    317    341      1
   363    319    320      1
   364    319    323      1
   365    319    383      1
   366    320    342      1
   367    320    383      1
   368    321    322      1
   369    321    362      1
   370    321    383      1
   371    322    323      1
   372    322    324      1
   373    324    344      1
   374    324    345      1
   375    325    346      1
   376    325    347      1
   377    343    361      1
   378    348    349      1
   379    348    355      1
   380    348    358      1
   381    348    361      1
   382    349    350      1
   383    349    384      1
   384    350    351      1
   385    350    385      1
   386    351    356      1
   387    351    359      1
   388    352    353      1
   389    352    356      1
   390    352    360      1
   391    353    354      1
   392    354    355      1
   393    354    357      1
   394    355    356      1
   395    355    386      1
   396    356    387      1
   397    357    365      1
   398    357    388      1
   399    358    376      1
   400    358    389      1
   401    358    390      1
   402    359    377      1
   403    359    391      1
   404    359    392      1
   405    360    368      1
   406    360    393      1
   407    362    363      1
   408    362    366      1
   409    363    364      1
   410    363    394      1
   411    364    365      1
   412    364    395      1
   413    365    366      1
   414    367    368      1
   415    367    371      1
   416    368    369      1
   417    369    370      1
   418    369    396      1
   419    370    371      1
   420    370    397      1
   421    372    376      1
   422    373    374      1
   423    373   1313      1
   424    374    375      1
   425    374    398      1
   426    375    376      1
   427    375    399      1
   428    377    378      1
   429    377    381      1
   430    378    379      1
   431    378    400      1
   432    379    380      1
   433    379    401      1
   434    380    381      1
   435    380    382      1
   436    382    402      1
   437    382    403      1
   438    406    407      1
   439    406    412      1
   440    406    419      1
   441    407    408      1
   442    407    425      1
   443    408    409      1
   444    408    426      1
   445    409    410      1
   446    409    411      1
   447    410    413      1
   448    410    427      1
   449    410    428      1
   450    413    414      1
   451    413    417      1
   452    414    415      1
   453    414    429      1
   454    415    416      1
   455    415    430      1
   456    416    417      1
   457    416    418      1
   458    418    431      1
   459    418    432      1
   460    419    423      1
   461    419    433      1
   462    419    434      1
   463    420    421      1
   464    420   2375      1
   465    421    422      1
   466    421    435      1
   467    422    423      1
   468    422    436      1
   469    423    424      1
   470    437    438      1
   471    437    450      1
   472    438    439      1
   473    438    456      1
   474    439    440      1
   475    439    457      1
   476    440    441      1
   477    441    444      1
   478    441    458      1
   479    444    445      1
   480    444    448      1
   481    445    446      1
   482    445    460      1
   483    446    447      1
   484    446    461      1
   485    447    448      1
   486    447    449      1
   487    449    462      1
   488    449    463      1
   489    450    454      1
   490    450    465      1
   491    451    452      1
   492    451   2773      1
   493    452    453      1
   494    452    466      1
   495    453    454      1
   496    454    455      1
   497    468    469      1
   498    468    472      1
   499    468    473      1
   500    469    470      1
   501    470    471      1
   502    470    479      1
   503    471    472      1
   504    471    486      1
   505    472    487      1
   506    473    480      1
   507    473    488      1
   508    474    475      1
   509    474    478      1
   510    474    479      1
   511    475   1829      1
   512    476    477      1
   513    477    478      1
   514    477    489      1
   515    478    490      1
   516    479    491      1
   517    480    481      1
   518    480    484      1
   519    481    482      1
   520    481    492      1
   521    482    483      1
   522    482    493      1
   523    483    484      1
   524    483    485      1
   525    485    494      1
   526    485    495      1
   527    496    497      1
   528    496    501      1
   529    497    498      1
   530    498    507      1
   531    499    500      1
   532    499    514      1
   533    500    515      1
   534    501    508      1
   535    501    516      1
   536    502    503      1
   537    502    506      1
   538    503    504      1
   539    504    505      1
   540    505    506      1
   541    505    517      1
   542    506    518      1
   543    507    519      1
   544    508    509      1
   545    509    510      1
   546    509    520      1
   547    510    521      1
   548    511    512      1
   549    511    513      1
   550    513    522      1
   551    513    523      1
   552    524    525      1
   553    524    528      1
   554    524    529      1
   555    525    887      1
   556    526    527      1
   557    526    530      1
   558    527    528      1
   559    527    531      1
   560    528    532      1
   561    529    533      1
   562    530    534      1
   563    535    536      1
   564    535    539      1
   565    535    540      1
   566    536    537      1
   567    537    538      1
   568    537    541      1
   569    538    539      1
   570    538    542      1
   571    539    543      1
   572    540    544      1
   573    541    545      1
   574    541   3351      1
   575    546    547      1
   576    546    550      1
   577    546    551      1
   578    547    548      1
   579    548    549      1
   580    549    550      1
   581    549    553      1
   582    550    554      1
   583    551    555      1
   584    551   2125      1
   585    552    556      1
   586    557    564      1
   587    557    567      1
   588    559    594      1
   589    560    565      1
   590    560    570      1
   591    561    565      1
   592    561    569      1
   593    562    563      1
   594    563    564      1
   595    563    566      1
   596    566    597      1
   597    567    585      1
   598    567    598      1
   599    567    599      1
   600    568    600      1
   601    568    601      1
   602    569    577      1
   603    569    602      1
   604    570    788      1
   605    571    572      1
   606    571    575      1
   607    572    573      1
   608    572    603      1
   609    573    574      1
   610    573    604      1
   611    574    575      1
   612    576    580      1
   613    577    578      1
   614    578    605      1
   615    579    580      1
   616    579    606      1
   617    580    592      1
   618    581    585      1
   619    581   2344      1
   620    582    583      1
   621    583    584      1
   622    584    585      1
   623    584    608      1
   624    586    590      1
   625    587    588      1
   626    587    609      1
   627    588    610      1
   628    589    590      1
   629    589    630      1
   630    589    661      1
   631    591    611      1
   632    591    612      1
   633    592    613      1
   634    592    614      1
   635    615    622      1
   636    615    625      1
   637    615    628      1
   638    616    617      1
   639    616    651      1
   640    617    652      1
   641    618    623      1
   642    618    626      1
   643    618    628      1
   644    619    620      1
   645    619    623      1
   646    619    627      1
   647    620    621      1
   648    621    622      1
   649    621    624      1
   650    622    623      1
   651    622    653      1
   652    623    654      1
   653    624    632      1
   654    624    655      1
   655    625    643      1
   656    625    656      1
   657    625    657      1
   658    626    644      1
   659    627    635      1
   660    627    660      1
   661    629    630      1
   662    629    633      1
   663    629    755      1
   664    630    631      1
   665    631    632      1
   666    631    662      1
   667    632    633      1
   668    634    635      1
   669    635    636      1
   670    636    637      1
   671    636    663      1
   672    637    664      1
   673    638    650      1
   674    639    640      1
   675    639    643      1
   676    640    641      1
   677    640    649      1
   678    641    642      1
   679    641    665      1
   680    642    643      1
   681    642    666      1
   682    644    645      1
   683    644    648      1
   684    645    646      1
   685    645    667      1
   686    646    647      1
   687    646    668      1
   688    647    930      1
   689    649    669      1
   690    649    670      1
   691    650    671      1
   692    650    672      1
   693    673    674      1
   694    673    680      1
   695    673    683      1
   696    673    686      1
   697    674    675      1
   698    674    709      1
   699    675    676      1
   700    675    710      1
   701    676    681      1
   702    676    684      1
   703    677    678      1
   704    677    681      1
   705    677    685      1
   706    678    679      1
   707    679    680      1
   708    679    682      1
   709    680    681      1
   710    680    711      1
   711    681    712      1
   712    682    690      1
   713    682    713      1
   714    683    714      1
   715    683    715      1
   716    684    702      1
   717    684    716      1
   718    684    717      1
   719    685    693      1
   720    685    718      1
   721    686    787      1
   722    687    688      1
   723    687    691      1
   724    687    708      1
   725    688    689      1
   726    688    719      1
   727    689    690      1
   728    689    720      1
   729    690    691      1
   730    692    693      1
   731    692    696      1
   732    693    694      1
   733    694    695      1
   734    694    721      1
   735    695    696      1
   736    695    722      1
   737    697    701      1
   738    698    699      1
   739    698   4306      1
   740    699    700      1
   741    699    723      1
   742    700    701      1
   743    700    724      1
   744    702    703      1
   745    702    706      1
   746    702    766      1
   747    703    725      1
   748    703    766      1
   749    704    705      1
   750    704    745      1
   751    704    766      1
   752    705    706      1
   753    707    727      1
   754    707    728      1
   755    708    729      1
   756    726    744      1
   757    731    732      1
   758    731    738      1
   759    731    741      1
   760    732    733      1
   761    732    767      1
   762    733    734      1
   763    733    768      1
   764    734    739      1
   765    734    742      1
   766    734    744      1
   767    735    736      1
   768    735    739      1
   769    735    743      1
   770    736    737      1
   771    737    738      1
   772    737    740      1
   773    738    739      1
   774    738    769      1
   775    739    770      1
   776    740    748      1
   777    740    771      1
   778    741    759      1
   779    741    772      1
   780    741    773      1
   781    742    760      1
   782    742    774      1
   783    742    775      1
   784    743    751      1
   785    743    776      1
   786    745    746      1
   787    745    749      1
   788    746    747      1
   789    747    748      1
   790    748    749      1
   791    750    751      1
   792    751    752      1
   793    752    753      1
   794    752    779      1
   795    753    754      1
   796    753    780      1
   797    754   3163      1
   798    755    759      1
   799    756    757      1
   800    756   1722      1
   801    757    758      1
   802    757    781      1
   803    758    759      1
   804    758    782      1
   805    760    761      1
   806    760    764      1
   807    761    762      1
   808    761    783      1
   809    762    763      1
   810    762    784      1
   811    763    764      1
   812    763    765      1
   813    765    785      1
   814    765    786      1
   815    789    790      1
   816    789    795      1
   817    789    802      1
   818    790    791      1
   819    790    808      1
   820    791    792      1
   821    791    809      1
   822    792    793      1
   823    792    794      1
   824    793    796      1
   825    793    810      1
   826    793    811      1
   827    796    797      1
   828    796    800      1
   829    797    798      1
   830    797    812      1
   831    798    799      1
   832    798    813      1
   833    799    800      1
   834    799    801      1
   835    801    814      1
   836    801    815      1
   837    802    806      1
   838    802    816      1
   839    802    817      1
   840    803    804      1
   841    803   3167      1
   842    804    805      1
   843    804    818      1
   844    805    806      1
   845    805    819      1
   846    806    807      1
   847    807   2881      1
   848    820    821      1
   849    820    826      1
   850    820    833      1
   851    821    822      1
   852    821    839      1
   853    822    823      1
   854    822    840      1
   855    823    824      1
   856    823    825      1
   857    824    827      1
   858    824    841      1
   859    824    842      1
   860    827    828      1
   861    827    831      1
   862    828    829      1
   863    828    843      1
   864    829    830      1
   865    829    844      1
   866    830    831      1
   867    830    832      1
   868    832    845      1
   869    832    846      1
   870    833    837      1
   871    833    847      1
   872    833    848      1
   873    834    835      1
   874    834   2843      1
   875    835    836      1
   876    835    849      1
   877    836    837      1
   878    836    850      1
   879    837    838      1
   880    851    852      1
   881    851    855      1
   882    851    856      1
   883    852    853      1
   884    853    854      1
   885    853    862      1
   886    854    855      1
   887    854    869      1
   888    855    870      1
   889    856    863      1
   890    856    871      1
   891    857    858      1
   892    857    861      1
   893    857    862      1
   894    858    859      1
   895    859    860      1
   896    860    861      1
   897    860    872      1
   898    861    873      1
   899    862    874      1
   900    863    864      1
   901    863    867      1
   902    864    865      1
   903    864    875      1
   904    865    866      1
   905    865    876      1
   906    866    867      1
   907    866    868      1
   908    868    877      1
   909    868    878      1
   910    879    880      1
   911    879    883      1
   912    879    884      1
   913    880    881      1
   914    881    882      1
   915    881    890      1
   916    882    883      1
   917    882    897      1
   918    883    898      1
   919    884    891      1
   920    884    899      1
   921    885    886      1
   922    885    889      1
   923    885    890      1
   924    886   2400      1
   925    887    888      1
   926    888    889      1
   927    888    900      1
   928    889    901      1
   929    890    902      1
   930    891    892      1
   931    891    895      1
   932    892    893      1
   933    892    903      1
   934    893    894      1
   935    893    904      1
   936    894    895      1
   937    894    896      1
   938    896    905      1
   939    896    906      1
   940    907    908      1
   941    907    911      1
   942    907    912      1
   943    908    909      1
   944    909    910      1
   945    909    913      1
   946    910    911      1
   947    910    914      1
   948    911    915      1
   949    912    916      1
   950    912   1879      1
   951    913    917      1
   952    918    919      1
   953    918    922      1
   954    918    923      1
   955    919    920      1
   956    920    921      1
   957    920    924      1
   958    921    922      1
   959    921    925      1
   960    922    926      1
   961    923    927      1
   962    924    928      1
   963    924   1052      1
   964    929    930      1
   965    929    933      1
   966    929    934      1
   967    931    932      1
   968    931    935      1
   969    932    933      1
   970    932    936      1
   971    933    937      1
   972    934    938      1
   973    935    939      1
   974    940    941      1
   975    940    944      1
   976    940    945      1
   977    941    942      1
   978    942    943      1
   979    942    946      1
   980    943    944      1
   981    943    947      1
   982    944    948      1
   983    945    949      1
   984    945   3083      1
   985    946    950      1
   986    951    952      1
   987    951    955      1
   988    951    956      1
   989    952    953      1
   990    953    954      1
   991    953    957      1
   992    954    955      1
   993    955    959      1
   994    956    960      1
   995    956   3561      1
   996    962    969      1
   997    963    964      1
   998    963    998      1
   999    964    965      1
  1000    964    999      1
  1001    965    975      1
  1002    966    967      1
  1003    966    970      1
  1004    966    974      1
  1005    967    968      1
  1006    968    969      1
  1007    968    971      1
  1008    969    970      1
  1009    969   1000      1
  1010    970   1001      1
  1011    971    979      1
  1012    971   1002      1
  1013    972    990      1
  1014    972   1003      1
  1015    972   1004      1
  1016    973   1005      1
  1017    973   1006      1
  1018    974    982      1
  1019    974   1007      1
  1020    975   1193      1
  1021    976    977      1
  1022    976   4318      1
  1023    977    978      1
  1024    977   1008      1
  1025    978    979      1
  1026    978   1009      1
  1027    979    980      1
  1028    980   4327      1
  1029    981    982      1
  1030    983    984      1
  1031    983   1010      1
  1032    984    985      1
  1033    984   1011      1
  1034    985    997      1
  1035    986    987      1
  1036    986    990      1
  1037    987    988      1
  1038    987    996      1
  1039    988    989      1
  1040    988   1012      1
  1041    989    990      1
  1042    989   1013      1
  1043    991    992      1
  1044    992    993      1
  1045    992   1014      1
  1046    993   1015      1
  1047    994    995      1
  1048    994   1035      1
  1049    994   1066      1
  1050    996   1016      1
  1051    996   1017      1
  1052    997   1018      1
  1053    997   1019      1
  1054   1020   1021      1
  1055   1020   1027      1
  1056   1020   1030      1
  1057   1020   1033      1
  1058   1021   1022      1
  1059   1021   1056      1
  1060   1022   1023      1
  1061   1022   1057      1
  1062   1023   1028      1
  1063   1023   1031      1
  1064   1023   1033      1
  1065   1024   1025      1
  1066   1024   1028      1
  1067   1024   1032      1
  1068   1025   1026      1
  1069   1026   1027      1
  1070   1026   1029      1
  1071   1027   1028      1
  1072   1027   1058      1
  1073   1028   1059      1
  1074   1029   1037      1
  1075   1029   1060      1
  1076   1030   1048      1
  1077   1030   1061      1
  1078   1030   1062      1
  1079   1031   1049      1
  1080   1031   1063      1
  1081   1031   1064      1
  1082   1032   1040      1
  1083   1032   1065      1
  1084   1034   1035      1
  1085   1034   1154      1
  1086   1035   1036      1
  1087   1036   1037      1
  1088   1036   1067      1
  1089   1037   1038      1
  1090   1038   1101      1
  1091   1039   1040      1
  1092   1039   1043      1
  1093   1040   1041      1
  1094   1041   1042      1
  1095   1041   1068      1
  1096   1042   1043      1
  1097   1042   1069      1
  1098   1043   1055      1
  1099   1044   1048      1
  1100   1045   1046      1
  1101   1045   1054      1
  1102   1046   1047      1
  1103   1046   1070      1
  1104   1047   1071      1
  1105   1049   1050      1
  1106   1049   1053      1
  1107   1050   1051      1
  1108   1050   1072      1
  1109   1051   1052      1
  1110   1051   1073      1
  1111   1054   1074      1
  1112   1055   1076      1
  1113   1055   1077      1
  1114   1078   1079      1
  1115   1078   1088      1
  1116   1079   1080      1
  1117   1079   1114      1
  1118   1080   1081      1
  1119   1080   1115      1
  1120   1081   1089      1
  1121   1081   1091      1
  1122   1082   1083      1
  1123   1082   1086      1
  1124   1082   1090      1
  1125   1083   1084      1
  1126   1084   1085      1
  1127   1084   1087      1
  1128   1085   1086      1
  1129   1085   1116      1
  1130   1086   1117      1
  1131   1087   1095      1
  1132   1087   1118      1
  1133   1088   1106      1
  1134   1088   1119      1
  1135   1088   1120      1
  1136   1089   1122      1
  1137   1090   1098      1
  1138   1090   1123      1
  1139   1092   1093      1
  1140   1092   1096      1
  1141   1092   1113      1
  1142   1093   1094      1
  1143   1093   1124      1
  1144   1094   1095      1
  1145   1094   1125      1
  1146   1095   1096      1
  1147   1097   1098      1
  1148   1098   1099      1
  1149   1099   1100      1
  1150   1099   1126      1
  1151   1100   1101      1
  1152   1100   1127      1
  1153   1102   1106      1
  1154   1102   3962      1
  1155   1103   1104      1
  1156   1103   3966      1
  1157   1104   1105      1
  1158   1104   1128      1
  1159   1105   1106      1
  1160   1105   1129      1
  1161   1107   1108      1
  1162   1107   1111      1
  1163   1108   1130      1
  1164   1108   1171      1
  1165   1109   1110      1
  1166   1109   1150      1
  1167   1109   1171      1
  1168   1110   1111      1
  1169   1110   1112      1
  1170   1112   1132      1
  1171   1112   1133      1
  1172   1113   1134      1
  1173   1131   1149      1
  1174   1136   1137      1
  1175   1136   1143      1
  1176   1136   1146      1
  1177   1137   1138      1
  1178   1137   1172      1
  1179   1138   1139      1
  1180   1138   1173      1
  1181   1139   1144      1
  1182   1139   1147      1
  1183   1139   1149      1
  1184   1140   1141      1
  1185   1140   1144      1
  1186   1140   1148      1
  1187   1142   1143      1
  1188   1142   1145      1
  1189   1142   1174      1
  1190   1143   1144      1
  1191   1144   1175      1
  1192   1145   1153      1
  1193   1146   1177      1
  1194   1146   1178      1
  1195   1147   1165      1
  1196   1147   1179      1
  1197   1147   1180      1
  1198   1148   1156      1
  1199   1148   1181      1
  1200   1150   1151      1
  1201   1152   1183      1
  1202   1153   1154      1
  1203   1155   1156      1
  1204   1155   1159      1
  1205   1156   1157      1
  1206   1157   1158      1
  1207   1157   1184      1
  1208   1158   1159      1
  1209   1158   1185      1
  1210   1160   1164      1
  1211   1160   4423      1
  1212   1161   1162      1
  1213   1161   3653      1
  1214   1162   1163      1
  1215   1162   1186      1
  1216   1163   1164      1
  1217   1165   1166      1
  1218   1165   1169      1
  1219   1166   1167      1
  1220   1166   1188      1
  1221   1167   1168      1
  1222   1167   1189      1
  1223   1168   1169      1
  1224   1168   1170      1
  1225   1170   1190      1
  1226   1170   1191      1
  1227   1194   1195      1
  1228   1194   1200      1
  1229   1194   1207      1
  1230   1195   1196      1
  1231   1195   1213      1
  1232   1196   1197      1
  1233   1196   1214      1
  1234   1197   1198      1
  1235   1197   1199      1
  1236   1198   1201      1
  1237   1198   1215      1
  1238   1198   1216      1
  1239   1201   1202      1
  1240   1201   1205      1
  1241   1202   1203      1
  1242   1202   1217      1
  1243   1203   1204      1
  1244   1203   1218      1
  1245   1204   1205      1
  1246   1204   1206      1
  1247   1206   1219      1
  1248   1206   1220      1
  1249   1207   1211      1
  1250   1207   1221      1
  1251   1207   1222      1
  1252   1208   1209      1
  1253   1209   1210      1
  1254   1209   1223      1
  1255   1210   1211      1
  1256   1210   1224      1
  1257   1211   1212      1
  1258   1212   3242      1
  1259   1225   1226      1
  1260   1225   1231      1
  1261   1225   1238      1
  1262   1226   1227      1
  1263   1226   1244      1
  1264   1227   1228      1
  1265   1227   1245      1
  1266   1228   1229      1
  1267   1228   1230      1
  1268   1229   1232      1
  1269   1229   1246      1
  1270   1229   1247      1
  1271   1230   2689      1
  1272   1232   1233      1
  1273   1232   1236      1
  1274   1233   1234      1
  1275   1233   1248      1
  1276   1234   1235      1
  1277   1234   1249      1
  1278   1235   1236      1
  1279   1235   1237      1
  1280   1237   1250      1
  1281   1237   1251      1
  1282   1238   1242      1
  1283   1238   1252      1
  1284   1238   1253      1
  1285   1239   1240      1
  1286   1240   1241      1
  1287   1240   1254      1
  1288   1241   1242      1
  1289   1241   1255      1
  1290   1242   1243      1
  1291   1243   2105      1
  1292   1256   1257      1
  1293   1256   1260      1
  1294   1256   1261      1
  1295   1257   1258      1
  1296   1258   1259      1
  1297   1258   1267      1
  1298   1259   1260      1
  1299   1259   1274      1
  1300   1260   1275      1
  1301   1261   1268      1
  1302   1261   1276      1
  1303   1262   1263      1
  1304   1262   1266      1
  1305   1262   1267      1
  1306   1263   1264      1
  1307   1264   1265      1
  1308   1265   1266      1
  1309   1265   1277      1
  1310   1266   1278      1
  1311   1267   1279      1
  1312   1268   1269      1
  1313   1269   1270      1
  1314   1269   1280      1
  1315   1270   1271      1
  1316   1270   1281      1
  1317   1271   1272      1
  1318   1271   1273      1
  1319   1272   3421      1
  1320   1273   1282      1
  1321   1273   1283      1
  1322   1284   1285      1
  1323   1284   1288      1
  1324   1285   1286      1
  1325   1286   1287      1
  1326   1286   1295      1
  1327   1287   1288      1
  1328   1287   1302      1
  1329   1288   1303      1
  1330   1289   1296      1
  1331   1289   1304      1
  1332   1290   1291      1
  1333   1290   1294      1
  1334   1290   1295      1
  1335   1291   1580      1
  1336   1292   1293      1
  1337   1292   1603      1
  1338   1293   1294      1
  1339   1293   1305      1
  1340   1294   1306      1
  1341   1295   1307      1
  1342   1296   1297      1
  1343   1296   1300      1
  1344   1297   1298      1
  1345   1297   1308      1
  1346   1298   1299      1
  1347   1298   1309      1
  1348   1299   1300      1
  1349   1299   1301      1
  1350   1301   1310      1
  1351   1301   1311      1
  1352   1312   1313      1
  1353   1312   1316      1
  1354   1312   1317      1
  1355   1314   1315      1
  1356   1314   1318      1
  1357   1315   1316      1
  1358   1315   1319      1
  1359   1316   1320      1
  1360   1317   1321      1
  1361   1317   2239      1
  1362   1318   1322      1
  1363   1323   1324      1
  1364   1323   1327      1
  1365   1323   1328      1
  1366   1324   1325      1
  1367   1325   1326      1
  1368   1325   1329      1
  1369   1326   1327      1
  1370   1326   1330      1
  1371   1327   1331      1
  1372   1328   1332      1
  1373   1328   2238      1
  1374   1329   1333      1
  1375   1329   1937      1
  1376   1334   1335      1
  1377   1334   1341      1
  1378   1334   1344      1
  1379   1335   1336      1
  1380   1335   1370      1
  1381   1336   1337      1
  1382   1336   1371      1
  1383   1337   1342      1
  1384   1337   1345      1
  1385   1337   1347      1
  1386   1338   1339      1
  1387   1338   1342      1
  1388   1338   1346      1
  1389   1339   1340      1
  1390   1340   1341      1
  1391   1340   1343      1
  1392   1341   1342      1
  1393   1343   1351      1
  1394   1343   1374      1
  1395   1344   1362      1
  1396   1344   1375      1
  1397   1344   1376      1
  1398   1345   1363      1
  1399   1345   1377      1
  1400   1345   1378      1
  1401   1346   1354      1
  1402   1346   1379      1
  1403   1347   1565      1
  1404   1348   1349      1
  1405   1348   2335      1
  1406   1349   1350      1
  1407   1349   1380      1
  1408   1350   1381      1
  1409   1351   1352      1
  1410   1353   1357      1
  1411   1354   1355      1
  1412   1355   1382      1
  1413   1356   1357      1
  1414   1356   1383      1
  1415   1357   1369      1
  1416   1358   1359      1
  1417   1358   1362      1
  1418   1359   1360      1
  1419   1359   1368      1
  1420   1360   1361      1
  1421   1360   1384      1
  1422   1361   1362      1
  1423   1361   1385      1
  1424   1363   1364      1
  1425   1363   1367      1
  1426   1364   1365      1
  1427   1364   1386      1
  1428   1365   1366      1
  1429   1365   1387      1
  1430   1366   1367      1
  1431   1366   1407      1
  1432   1366   1438      1
  1433   1368   1388      1
  1434   1368   1389      1
  1435   1369   1390      1
  1436   1369   1391      1
  1437   1392   1393      1
  1438   1392   1399      1
  1439   1392   1402      1
  1440   1392   1405      1
  1441   1393   1394      1
  1442   1393   1428      1
  1443   1394   1395      1
  1444   1394   1429      1
  1445   1395   1400      1
  1446   1395   1403      1
  1447   1396   1397      1
  1448   1396   1400      1
  1449   1396   1404      1
  1450   1397   1398      1
  1451   1398   1399      1
  1452   1398   1401      1
  1453   1399   1400      1
  1454   1399   1430      1
  1455   1400   1431      1
  1456   1401   1409      1
  1457   1401   1432      1
  1458   1402   1420      1
  1459   1402   1433      1
  1460   1402   1434      1
  1461   1403   1421      1
  1462   1403   1435      1
  1463   1403   1436      1
  1464   1404   1412      1
  1465   1404   1437      1
  1466   1405   1733      1
  1467   1406   1407      1
  1468   1406   3882      1
  1469   1407   1408      1
  1470   1408   1409      1
  1471   1408   1439      1
  1472   1409   1410      1
  1473   1411   1412      1
  1474   1411   1415      1
  1475   1412   1413      1
  1476   1413   1414      1
  1477   1413   1440      1
  1478   1414   1415      1
  1479   1414   1441      1
  1480   1415   1427      1
  1481   1416   1417      1
  1482   1416   1420      1
  1483   1417   1418      1
  1484   1417   1426      1
  1485   1418   1419      1
  1486   1418   1442      1
  1487   1419   1420      1
  1488   1419   1443      1
  1489   1421   1422      1
  1490   1421   1425      1
  1491   1422   1423      1
  1492   1422   1444      1
  1493   1423   1424      1
  1494   1423   1445      1
  1495   1424   3922      1
  1496   1424   3923      1
  1497   1426   1446      1
  1498   1426   1447      1
  1499   1427   1448      1
  1500   1427   1449      1
  1501   1450   1451      1
  1502   1450   1457      1
  1503   1450   1460      1
  1504   1451   1452      1
  1505   1451   1486      1
  1506   1452   1453      1
  1507   1452   1487      1
  1508   1453   1458      1
  1509   1453   1461      1
  1510   1453   1463      1
  1511   1454   1455      1
  1512   1454   1458      1
  1513   1454   1462      1
  1514   1455   1456      1
  1515   1456   1457      1
  1516   1456   1459      1
  1517   1457   1458      1
  1518   1457   1488      1
  1519   1458   1489      1
  1520   1459   1467      1
  1521   1459   1490      1
  1522   1460   1478      1
  1523   1460   1491      1
  1524   1460   1492      1
  1525   1461   1479      1
  1526   1461   1493      1
  1527   1461   1494      1
  1528   1462   1470      1
  1529   1462   1495      1
  1530   1463   1564      1
  1531   1464   1465      1
  1532   1464   1468      1
  1533   1464   1485      1
  1534   1465   1466      1
  1535   1465   1496      1
  1536   1466   1467      1
  1537   1466   1497      1
  1538   1467   1468      1
  1539   1469   1470      1
  1540   1469   1473      1
  1541   1470   1471      1
  1542   1471   1472      1
  1543   1471   1498      1
  1544   1472   1473      1
  1545   1472   1499      1
  1546   1474   1478      1
  1547   1475   1476      1
  1548   1475   1672      1
  1549   1476   1477      1
  1550   1476   1500      1
  1551   1477   1478      1
  1552   1477   1501      1
  1553   1479   1480      1
  1554   1479   1483      1
  1555   1479   1543      1
  1556   1480   1502      1
  1557   1480   1543      1
  1558   1481   1482      1
  1559   1481   1522      1
  1560   1481   1543      1
  1561   1482   1483      1
  1562   1482   1484      1
  1563   1484   1504      1
  1564   1484   1505      1
  1565   1485   1506      1
  1566   1485   1507      1
  1567   1503   1521      1
  1568   1508   1509      1
  1569   1508   1515      1
  1570   1508   1518      1
  1571   1509   1510      1
  1572   1509   1544      1
  1573   1510   1511      1
  1574   1510   1545      1
  1575   1511   1516      1
  1576   1511   1519      1
  1577   1511   1521      1
  1578   1512   1513      1
  1579   1512   1516      1
  1580   1512   1520      1
  1581   1513   1514      1
  1582   1514   1515      1
  1583   1514   1517      1
  1584   1515   1516      1
  1585   1515   1546      1
  1586   1516   1547      1
  1587   1517   1525      1
  1588   1517   1548      1
  1589   1518   1536      1
  1590   1518   1549      1
  1591   1518   1550      1
  1592   1519   1537      1
  1593   1519   1551      1
  1594   1519   1552      1
  1595   1520   1528      1
  1596   1520   1553      1
  1597   1522   1523      1
  1598   1522   1526      1
  1599   1523   1524      1
  1600   1523   1554      1
  1601   1524   1525      1
  1602   1524   1555      1
  1603   1525   1526      1
  1604   1527   1528      1
  1605   1527   1531      1
  1606   1528   1529      1
  1607   1529   1530      1
  1608   1529   1556      1
  1609   1530   1531      1
  1610   1530   1557      1
  1611   1532   1536      1
  1612   1532   1689      1
  1613   1533   1534      1
  1614   1533   4047      1
  1615   1534   1535      1
  1616   1534   1558      1
  1617   1535   1536      1
  1618   1535   1559      1
  1619   1537   1538      1
  1620   1537   1541      1
  1621   1538   1539      1
  1622   1538   1560      1
  1623   1539   1540      1
  1624   1539   1561      1
  1625   1540   1541      1
  1626   1540   1542      1
  1627   1542   1562      1
  1628   1542   1563      1
  1629   1566   1567      1
  1630   1566   1572      1
  1631   1566   1579      1
  1632   1567   1568      1
  1633   1567   1585      1
  1634   1568   1569      1
  1635   1568   1586      1
  1636   1569   1570      1
  1637   1569   1571      1
  1638   1570   1573      1
  1639   1570   1587      1
  1640   1570   1588      1
  1641   1573   1574      1
  1642   1573   1577      1
  1643   1574   1575      1
  1644   1574   1589      1
  1645   1575   1576      1
  1646   1575   1590      1
  1647   1576   1577      1
  1648   1576   1578      1
  1649   1578   1591      1
  1650   1578   1592      1
  1651   1579   1583      1
  1652   1579   1593      1
  1653   1579   1594      1
  1654   1580   1581      1
  1655   1581   1582      1
  1656   1581   1595      1
  1657   1582   1583      1
  1658   1582   1596      1
  1659   1583   1584      1
  1660   1597   1598      1
  1661   1597   1603      1
  1662   1597   1610      1
  1663   1598   1599      1
  1664   1598   1616      1
  1665   1599   1600      1
  1666   1599   1617      1
  1667   1600   1601      1
  1668   1600   1602      1
  1669   1601   1604      1
  1670   1601   1618      1
  1671   1601   1619      1
  1672   1604   1605      1
  1673   1604   1608      1
  1674   1605   1620      1
  1675   1606   1607      1
  1676   1606   1621      1
  1677   1607   1609      1
  1678   1609   1622      1
  1679   1609   1623      1
  1680   1610   1614      1
  1681   1610   1624      1
  1682   1610   1625      1
  1683   1611   1612      1
  1684   1612   1613      1
  1685   1612   1626      1
  1686   1613   1614      1
  1687   1613   1627      1
  1688   1614   1615      1
  1689   1628   1629      1
  1690   1628   1632      1
  1691   1628   1633      1
  1692   1629   1630      1
  1693   1630   1631      1
  1694   1630   1639      1
  1695   1631   1632      1
  1696   1631   1646      1
  1697   1632   1647      1
  1698   1633   1640      1
  1699   1633   1648      1
  1700   1634   1635      1
  1701   1634   1638      1
  1702   1634   1639      1
  1703   1635   1636      1
  1704   1636   1637      1
  1705   1636   3814      1
  1706   1637   1638      1
  1707   1637   1649      1
  1708   1638   1650      1
  1709   1639   1651      1
  1710   1640   1641      1
  1711   1640   1644      1
  1712   1641   1642      1
  1713   1641   1652      1
  1714   1642   1643      1
  1715   1642   1653      1
  1716   1643   1644      1
  1717   1643   1645      1
  1718   1645   1654      1
  1719   1645   1655      1
  1720   1656   1657      1
  1721   1656   1661      1
  1722   1658   1659      1
  1723   1658   1667      1
  1724   1659   1660      1
  1725   1659   1674      1
  1726   1660   1675      1
  1727   1661   1668      1
  1728   1661   1676      1
  1729   1662   1663      1
  1730   1662   1666      1
  1731   1662   1667      1
  1732   1663   3564      1
  1733   1664   1665      1
  1734   1664   4040      1
  1735   1665   1666      1
  1736   1665   1677      1
  1737   1666   1678      1
  1738   1668   1669      1
  1739   1669   1670      1
  1740   1669   1680      1
  1741   1670   1671      1
  1742   1670   1681      1
  1743   1671   1673      1
  1744   1673   1682      1
  1745   1684   1685      1
  1746   1684   1688      1
  1747   1684   1689      1
  1748   1685   1686      1
  1749   1686   1687      1
  1750   1686   1690      1
  1751   1687   1688      1
  1752   1687   1691      1
  1753   1688   1692      1
  1754   1689   1693      1
  1755   1690   1694      1
  1756   1695   1699      1
  1757   1695   1700      1
  1758   1696   1697      1
  1759   1696   4209      1
  1760   1697   1698      1
  1761   1698   1699      1
  1762   1699   1703      1
  1763   1700   1704      1
  1764   1701   1705      1
  1765   1706   1707      1
  1766   1706   1710      1
  1767   1706   1711      1
  1768   1707   1708      1
  1769   1708   1709      1
  1770   1708   1712      1
  1771   1709   1710      1
  1772   1709   1713      1
  1773   1710   1714      1
  1774   1711   1715      1
  1775   1711   2958      1
  1776   1712   1716      1
  1777   1717   1718      1
  1778   1717   1722      1
  1779   1718   1719      1
  1780   1720   1721      1
  1781   1720   1724      1
  1782   1721   1725      1
  1783   1722   1726      1
  1784   1723   1727      1
  1785   1728   1729      1
  1786   1728   1732      1
  1787   1728   1733      1
  1788   1729   1730      1
  1789   1730   1731      1
  1790   1730   1734      1
  1791   1731   1732      1
  1792   1731   1735      1
  1793   1732   1736      1
  1794   1733   1737      1
  1795   1734   1738      1
  1796   1739   1740      1
  1797   1739   1746      1
  1798   1739   1749      1
  1799   1740   1741      1
  1800   1740   1775      1
  1801   1741   1742      1
  1802   1741   1776      1
  1803   1742   1747      1
  1804   1742   1750      1
  1805   1743   1744      1
  1806   1743   1747      1
  1807   1743   1751      1
  1808   1744   1745      1
  1809   1745   1746      1
  1810   1745   1748      1
  1811   1746   1747      1
  1812   1746   1777      1
  1813   1747   1778      1
  1814   1748   1756      1
  1815   1748   1779      1
  1816   1749   1767      1
  1817   1749   1780      1
  1818   1749   1781      1
  1819   1750   1768      1
  1820   1750   1782      1
  1821   1750   1783      1
  1822   1751   1759      1
  1823   1751   1784      1
  1824   1752   1811      1
  1825   1752   1970      1
  1826   1753   1754      1
  1827   1753   3518      1
  1828   1754   1755      1
  1829   1754   1785      1
  1830   1755   1756      1
  1831   1755   1786      1
  1832   1756   1757      1
  1833   1758   1759      1
  1834   1758   1762      1
  1835   1759   1760      1
  1836   1760   1761      1
  1837   1760   1787      1
  1838   1761   1762      1
  1839   1761   1788      1
  1840   1762   1774      1
  1841   1763   1764      1
  1842   1763   1767      1
  1843   1764   1765      1
  1844   1764   1773      1
  1845   1765   1766      1
  1846   1765   1789      1
  1847   1766   1767      1
  1848   1766   1790      1
  1849   1768   1769      1
  1850   1768   1772      1
  1851   1769   1770      1
  1852   1769   1791      1
  1853   1770   1771      1
  1854   1770   1792      1
  1855   1771   1772      1
  1856   1771   1812      1
  1857   1771   1843      1
  1858   1773   1793      1
  1859   1773   1794      1
  1860   1774   1795      1
  1861   1774   1796      1
  1862   1797   1798      1
  1863   1797   1804      1
  1864   1797   1807      1
  1865   1798   1799      1
  1866   1798   1833      1
  1867   1799   1800      1
  1868   1799   1834      1
  1869   1800   1805      1
  1870   1800   1808      1
  1871   1801   1802      1
  1872   1801   1805      1
  1873   1801   1809      1
  1874   1802   1803      1
  1875   1803   1804      1
  1876   1803   1806      1
  1877   1804   1805      1
  1878   1804   1835      1
  1879   1805   1836      1
  1880   1806   1814      1
  1881   1806   1837      1
  1882   1807   1825      1
  1883   1807   1838      1
  1884   1807   1839      1
  1885   1808   1826      1
  1886   1808   1840      1
  1887   1808   1841      1
  1888   1809   1817      1
  1889   1809   1842      1
  1890   1810   3479      1
  1891   1811   1812      1
  1892   1811   1815      1
  1893   1812   1813      1
  1894   1813   1814      1
  1895   1813   1844      1
  1896   1814   1815      1
  1897   1816   1817      1
  1898   1816   1820      1
  1899   1817   1818      1
  1900   1818   1819      1
  1901   1818   1845      1
  1902   1819   1820      1
  1903   1819   1846      1
  1904   1820   1832      1
  1905   1821   1822      1
  1906   1821   1825      1
  1907   1822   1823      1
  1908   1822   1831      1
  1909   1823   1824      1
  1910   1823   1847      1
  1911   1824   1825      1
  1912   1824   1848      1
  1913   1826   1827      1
  1914   1826   1830      1
  1915   1827   1828      1
  1916   1827   1849      1
  1917   1828   1829      1
  1918   1828   1850      1
  1919   1831   1851      1
  1920   1831   1852      1
  1921   1832   1853      1
  1922   1832   1854      1
  1923   1855   1856      1
  1924   1855   1862      1
  1925   1855   1865      1
  1926   1856   1857      1
  1927   1856   1891      1
  1928   1857   1858      1
  1929   1857   1892      1
  1930   1858   1863      1
  1931   1858   1866      1
  1932   1858   1868      1
  1933   1859   1860      1
  1934   1859   1863      1
  1935   1859   1867      1
  1936   1860   1861      1
  1937   1861   1862      1
  1938   1861   1864      1
  1939   1862   1863      1
  1940   1862   1893      1
  1941   1863   1894      1
  1942   1864   1872      1
  1943   1864   1895      1
  1944   1865   1883      1
  1945   1865   1896      1
  1946   1865   1897      1
  1947   1866   1884      1
  1948   1866   1898      1
  1949   1866   1899      1
  1950   1867   1875      1
  1951   1867   1900      1
  1952   1868   1969      1
  1953   1869   1870      1
  1954   1869   1873      1
  1955   1869   1890      1
  1956   1870   1871      1
  1957   1870   1901      1
  1958   1871   1872      1
  1959   1871   1902      1
  1960   1872   1873      1
  1961   1874   1875      1
  1962   1874   1878      1
  1963   1875   1876      1
  1964   1876   1877      1
  1965   1876   1903      1
  1966   1877   1878      1
  1967   1877   1904      1
  1968   1879   1883      1
  1969   1880   1881      1
  1970   1881   1882      1
  1971   1881   1905      1
  1972   1882   1883      1
  1973   1882   1906      1
  1974   1884   1885      1
  1975   1884   1888      1
  1976   1884   1948      1
  1977   1885   1907      1
  1978   1885   1948      1
  1979   1886   1887      1
  1980   1886   1927      1
  1981   1886   1948      1
  1982   1887   1888      1
  1983   1887   1889      1
  1984   1889   1909      1
  1985   1889   1910      1
  1986   1890   1911      1
  1987   1890   1912      1
  1988   1908   1926      1
  1989   1913   1914      1
  1990   1913   1920      1
  1991   1913   1923      1
  1992   1914   1915      1
  1993   1914   1949      1
  1994   1915   1950      1
  1995   1916   1921      1
  1996   1916   1924      1
  1997   1916   1926      1
  1998   1917   1918      1
  1999   1917   1921      1
  2000   1917   1925      1
  2001   1918   1919      1
  2002   1919   1922      1
  2003   1920   1951      1
  2004   1922   1953      1
  2005   1923   1941      1
  2006   1923   1955      1
  2007   1924   1942      1
  2008   1924   1956      1
  2009   1924   1957      1
  2010   1925   1933      1
  2011   1925   1958      1
  2012   1927   1928      1
  2013   1927   1931      1
  2014   1928   1929      1
  2015   1928   1959      1
  2016   1929   1930      1
  2017   1929   1960      1
  2018   1930   1931      1
  2019   1932   1933      1
  2020   1932   1936      1
  2021   1933   1934      1
  2022   1934   1935      1
  2023   1934   1961      1
  2024   1935   1936      1
  2025   1935   1962      1
  2026   1937   1941      1
  2027   1939   1963      1
  2028   1940   1941      1
  2029   1942   1943      1
  2030   1942   1946      1
  2031   1943   1944      1
  2032   1943   1965      1
  2033   1944   1945      1
  2034   1944   1966      1
  2035   1945   1946      1
  2036   1947   1968      1
  2037   1971   1972      1
  2038   1971   1977      1
  2039   1971   1984      1
  2040   1972   1973      1
  2041   1972   1990      1
  2042   1973   1974      1
  2043   1973   1991      1
  2044   1974   1976      1
  2045   1975   1978      1
  2046   1975   1992      1
  2047   1975   1993      1
  2048   1978   1979      1
  2049   1978   1982      1
  2050   1979   1980      1
  2051   1979   1994      1
  2052   1980   1981      1
  2053   1980   1995      1
  2054   1981   1982      1
  2055   1981   1983      1
  2056   1983   1996      1
  2057   1983   1997      1
  2058   1984   1988      1
  2059   1984   1998      1
  2060   1984   1999      1
  2061   1985   1986      1
  2062   1985   1989      1
  2063   1986   1987      1
  2064   1986   2000      1
  2065   1987   1988      1
  2066   1987   2001      1
  2067   1988   1989      1
  2068   2002   2003      1
  2069   2002   2008      1
  2070   2002   2015      1
  2071   2003   2004      1
  2072   2003   2021      1
  2073   2004   2005      1
  2074   2004   2022      1
  2075   2005   2006      1
  2076   2005   2007      1
  2077   2006   2009      1
  2078   2006   2023      1
  2079   2006   2024      1
  2080   2009   2010      1
  2081   2009   2013      1
  2082   2010   2011      1
  2083   2010   2025      1
  2084   2011   2012      1
  2085   2011   2026      1
  2086   2012   2013      1
  2087   2012   2014      1
  2088   2014   2027      1
  2089   2015   2019      1
  2090   2015   2029      1
  2091   2015   2030      1
  2092   2016   2017      1
  2093   2016   2020      1
  2094   2017   2018      1
  2095   2017   2031      1
  2096   2018   2019      1
  2097   2018   2032      1
  2098   2019   2020      1
  2099   2033   2034      1
  2100   2033   2037      1
  2101   2033   2038      1
  2102   2034   2035      1
  2103   2035   2036      1
  2104   2035   2044      1
  2105   2036   2037      1
  2106   2036   2051      1
  2107   2037   2052      1
  2108   2038   2045      1
  2109   2038   2053      1
  2110   2039   2040      1
  2111   2039   2043      1
  2112   2039   2044      1
  2113   2040   2041      1
  2114   2041   2042      1
  2115   2042   2043      1
  2116   2042   2054      1
  2117   2043   2055      1
  2118   2044   2056      1
  2119   2045   2046      1
  2120   2045   2049      1
  2121   2046   2047      1
  2122   2046   2057      1
  2123   2047   2048      1
  2124   2047   2058      1
  2125   2048   2049      1
  2126   2048   2050      1
  2127   2050   2059      1
  2128   2050   2060      1
  2129   2061   2062      1
  2130   2061   2065      1
  2131   2061   2066      1
  2132   2062   2063      1
  2133   2063   2064      1
  2134   2063   2072      1
  2135   2064   2065      1
  2136   2064   2079      1
  2137   2065   2080      1
  2138   2066   2073      1
  2139   2066   2081      1
  2140   2067   2068      1
  2141   2067   2071      1
  2142   2067   2072      1
  2143   2069   2070      1
  2144   2070   2082      1
  2145   2071   2083      1
  2146   2072   2084      1
  2147   2073   2074      1
  2148   2073   2077      1
  2149   2074   2075      1
  2150   2074   2085      1
  2151   2075   2076      1
  2152   2075   2086      1
  2153   2076   2077      1
  2154   2076   2078      1
  2155   2078   2087      1
  2156   2078   2088      1
  2157   2089   2090      1
  2158   2089   2093      1
  2159   2089   2094      1
  2160   2091   2095      1
  2161   2092   2093      1
  2162   2092   2096      1
  2163   2093   2097      1
  2164   2094   2098      1
  2165   2095   2099      1
  2166   2095   4314      1
  2167   2100   2101      1
  2168   2100   2104      1
  2169   2102   2103      1
  2170   2102   2106      1
  2171   2103   2107      1
  2172   2104   2108      1
  2173   2105   2109      1
  2174   2106   2110      1
  2175   2111   2112      1
  2176   2111   2118      1
  2177   2111   2121      1
  2178   2112   2113      1
  2179   2112   2147      1
  2180   2113   2114      1
  2181   2113   2148      1
  2182   2114   2119      1
  2183   2114   2122      1
  2184   2114   2124      1
  2185   2115   2116      1
  2186   2115   2119      1
  2187   2115   2123      1
  2188   2116   2117      1
  2189   2117   2118      1
  2190   2117   2120      1
  2191   2118   2119      1
  2192   2118   2149      1
  2193   2119   2150      1
  2194   2120   2128      1
  2195   2120   2151      1
  2196   2121   2139      1
  2197   2121   2152      1
  2198   2121   2153      1
  2199   2122   2140      1
  2200   2122   2154      1
  2201   2122   2155      1
  2202   2123   2131      1
  2203   2123   2156      1
  2204   2124   2329      1
  2205   2125   2126      1
  2206   2125   2129      1
  2207   2126   2127      1
  2208   2126   2157      1
  2209   2127   2128      1
  2210   2127   2158      1
  2211   2128   2129      1
  2212   2130   2131      1
  2213   2130   2134      1
  2214   2131   2132      1
  2215   2132   2133      1
  2216   2132   2159      1
  2217   2133   2134      1
  2218   2134   2146      1
  2219   2135   2136      1
  2220   2135   2139      1
  2221   2136   2137      1
  2222   2136   2145      1
  2223   2137   2138      1
  2224   2137   2161      1
  2225   2138   2139      1
  2226   2138   2162      1
  2227   2140   2141      1
  2228   2140   2144      1
  2229   2141   2142      1
  2230   2141   2163      1
  2231   2142   2143      1
  2232   2142   2164      1
  2233   2143   2144      1
  2234   2143   2183      1
  2235   2143   2206      1
  2236   2145   2165      1
  2237   2145   2166      1
  2238   2146   2168      1
  2239   2169   2170      1
  2240   2169   2176      1
  2241   2169   2181      1
  2242   2170   2171      1
  2243   2170   2198      1
  2244   2171   2172      1
  2245   2171   2199      1
  2246   2172   2177      1
  2247   2172   2179      1
  2248   2173   2174      1
  2249   2173   2177      1
  2250   2173   2180      1
  2251   2174   2175      1
  2252   2175   2176      1
  2253   2175   2178      1
  2254   2176   2177      1
  2255   2176   2200      1
  2256   2177   2201      1
  2257   2178   2185      1
  2258   2178   2202      1
  2259   2179   2192      1
  2260   2179   2203      1
  2261   2179   2204      1
  2262   2180   2188      1
  2263   2180   2205      1
  2264   2182   2183      1
  2265   2182   2186      1
  2266   2183   2184      1
  2267   2184   2185      1
  2268   2184   2207      1
  2269   2185   2186      1
  2270   2187   2188      1
  2271   2187   2191      1
  2272   2188   2189      1
  2273   2189   2190      1
  2274   2189   2208      1
  2275   2190   2191      1
  2276   2190   2209      1
  2277   2191   2197      1
  2278   2192   2193      1
  2279   2192   2196      1
  2280   2193   2194      1
  2281   2193   2210      1
  2282   2194   2195      1
  2283   2194   2211      1
  2284   2195   3196      1
  2285   2196   2506      1
  2286   2197   2212      1
  2287   2197   2213      1
  2288   2214   2215      1
  2289   2214   2221      1
  2290   2214   2224      1
  2291   2215   2216      1
  2292   2215   2250      1
  2293   2216   2217      1
  2294   2216   2251      1
  2295   2217   2222      1
  2296   2217   2225      1
  2297   2217   2227      1
  2298   2218   2219      1
  2299   2218   2222      1
  2300   2218   2226      1
  2301   2219   2220      1
  2302   2220   2221      1
  2303   2220   2223      1
  2304   2221   2222      1
  2305   2221   2252      1
  2306   2222   2253      1
  2307   2223   2231      1
  2308   2223   2254      1
  2309   2224   2242      1
  2310   2224   2255      1
  2311   2224   2256      1
  2312   2225   2243      1
  2313   2225   2257      1
  2314   2225   2258      1
  2315   2226   2234      1
  2316   2226   2259      1
  2317   2227   2328      1
  2318   2228   2229      1
  2319   2228   2232      1
  2320   2228   2249      1
  2321   2229   2230      1
  2322   2229   2260      1
  2323   2230   2231      1
  2324   2230   2261      1
  2325   2231   2232      1
  2326   2233   2234      1
  2327   2233   2237      1
  2328   2234   2235      1
  2329   2235   2236      1
  2330   2235   2262      1
  2331   2236   2237      1
  2332   2236   2263      1
  2333   2239   2240      1
  2334   2240   2241      1
  2335   2240   2264      1
  2336   2243   2244      1
  2337   2243   2247      1
  2338   2244   2266      1
  2339   2244   2307      1
  2340   2245   2246      1
  2341   2245   2286      1
  2342   2245   2307      1
  2343   2246   2247      1
  2344   2246   2248      1
  2345   2248   2268      1
  2346   2248   2269      1
  2347   2249   2270      1
  2348   2249   2271      1
  2349   2267   2285      1
  2350   2272   2273      1
  2351   2272   2279      1
  2352   2272   2282      1
  2353   2273   2274      1
  2354   2273   2308      1
  2355   2274   2275      1
  2356   2274   2309      1
  2357   2275   2280      1
  2358   2275   2283      1
  2359   2275   2285      1
  2360   2276   2277      1
  2361   2276   2280      1
  2362   2276   2284      1
  2363   2277   2278      1
  2364   2278   2279      1
  2365   2278   2281      1
  2366   2279   2280      1
  2367   2279   2310      1
  2368   2280   2311      1
  2369   2281   2289      1
  2370   2281   2312      1
  2371   2282   2300      1
  2372   2282   2313      1
  2373   2282   2314      1
  2374   2283   2301      1
  2375   2283   2315      1
  2376   2283   2316      1
  2377   2284   2292      1
  2378   2284   2317      1
  2379   2286   2287      1
  2380   2286   2290      1
  2381   2287   2288      1
  2382   2287   2318      1
  2383   2288   2289      1
  2384   2288   2319      1
  2385   2289   2290      1
  2386   2291   2292      1
  2387   2291   2295      1
  2388   2292   2293      1
  2389   2293   2294      1
  2390   2293   2320      1
  2391   2294   2295      1
  2392   2294   2321      1
  2393   2296   2300      1
  2394   2296   3132      1
  2395   2297   2298      1
  2396   2297   2876      1
  2397   2298   2299      1
  2398   2298   2322      1
  2399   2299   2300      1
  2400   2299   2323      1
  2401   2301   2302      1
  2402   2301   2305      1
  2403   2302   2303      1
  2404   2302   2324      1
  2405   2303   2304      1
  2406   2303   2325      1
  2407   2304   2305      1
  2408   2304   2306      1
  2409   2306   2326      1
  2410   2306   2327      1
  2411   2330   2331      1
  2412   2330   2336      1
  2413   2330   2343      1
  2414   2331   2332      1
  2415   2331   2349      1
  2416   2332   2333      1
  2417   2332   2350      1
  2418   2333   2335      1
  2419   2334   2337      1
  2420   2334   2351      1
  2421   2334   2352      1
  2422   2337   2338      1
  2423   2337   2341      1
  2424   2338   2339      1
  2425   2338   2353      1
  2426   2339   2340      1
  2427   2339   2354      1
  2428   2340   2341      1
  2429   2340   2342      1
  2430   2342   2355      1
  2431   2342   2356      1
  2432   2343   2347      1
  2433   2343   2357      1
  2434   2343   2358      1
  2435   2344   2345      1
  2436   2345   2346      1
  2437   2361   2362      1
  2438   2361   2367      1
  2439   2361   2374      1
  2440   2362   2363      1
  2441   2362   2380      1
  2442   2363   2364      1
  2443   2363   2381      1
  2444   2364   2365      1
  2445   2364   2366      1
  2446   2365   2368      1
  2447   2365   2382      1
  2448   2365   2383      1
  2449   2368   2369      1
  2450   2368   2372      1
  2451   2369   2370      1
  2452   2369   2384      1
  2453   2370   2371      1
  2454   2370   2385      1
  2455   2371   2372      1
  2456   2371   2373      1
  2457   2373   2386      1
  2458   2373   2387      1
  2459   2374   2378      1
  2460   2374   2388      1
  2461   2374   2389      1
  2462   2375   2376      1
  2463   2376   2377      1
  2464   2376   2390      1
  2465   2377   2378      1
  2466   2377   2391      1
  2467   2378   2379      1
  2468   2392   2393      1
  2469   2392   2396      1
  2470   2392   2397      1
  2471   2393   2394      1
  2472   2394   2395      1
  2473   2394   2403      1
  2474   2395   2396      1
  2475   2395   2410      1
  2476   2396   2411      1
  2477   2397   2404      1
  2478   2398   2399      1
  2479   2398   2402      1
  2480   2398   2403      1
  2481   2400   2401      1
  2482   2401   2402      1
  2483   2401   2413      1
  2484   2402   2414      1
  2485   2403   2415      1
  2486   2404   2408      1
  2487   2405   2416      1
  2488   2406   2407      1
  2489   2407   2408      1
  2490   2407   2409      1
  2491   2409   2419      1
  2492   2420   2421      1
  2493   2420   2424      1
  2494   2420   2425      1
  2495   2421   2422      1
  2496   2422   2423      1
  2497   2422   2431      1
  2498   2423   2424      1
  2499   2423   2438      1
  2500   2424   2439      1
  2501   2425   2432      1
  2502   2425   2440      1
  2503   2426   2427      1
  2504   2426   2430      1
  2505   2426   2431      1
  2506   2427   2428      1
  2507   2428   2429      1
  2508   2428   4158      1
  2509   2429   2430      1
  2510   2429   2441      1
  2511   2430   2442      1
  2512   2431   2443      1
  2513   2432   2433      1
  2514   2432   2436      1
  2515   2433   2434      1
  2516   2433   2444      1
  2517   2434   2445      1
  2518   2435   2437      1
  2519   2437   2446      1
  2520   2437   2447      1
  2521   2448   2449      1
  2522   2448   2452      1
  2523   2449   2450      1
  2524   2450   2451      1
  2525   2450   2454      1
  2526   2451   2452      1
  2527   2451   2455      1
  2528   2452   2456      1
  2529   2453   2457      1
  2530   2454   2458      1
  2531   2454   3987      1
  2532   2459   2463      1
  2533   2459   2464      1
  2534   2460   2461      1
  2535   2460   4637      1
  2536   2461   2462      1
  2537   2461   2465      1
  2538   2462   2463      1
  2539   2462   2466      1
  2540   2463   2467      1
  2541   2464   2468      1
  2542   2465   2469      1
  2543   2470   2474      1
  2544   2470   2475      1
  2545   2471   2472      1
  2546   2472   2473      1
  2547   2472   2476      1
  2548   2473   2474      1
  2549   2473   2477      1
  2550   2474   2478      1
  2551   2475   2479      1
  2552   2476   2480      1
  2553   2481   2482      1
  2554   2481   2485      1
  2555   2481   2486      1
  2556   2482   2483      1
  2557   2483   2484      1
  2558   2483   2487      1
  2559   2484   2485      1
  2560   2485   2489      1
  2561   2486   2490      1
  2562   2487   2621      1
  2563   2492   2493      1
  2564   2492   2499      1
  2565   2492   2502      1
  2566   2493   2494      1
  2567   2493   2528      1
  2568   2494   2495      1
  2569   2494   2529      1
  2570   2495   2500      1
  2571   2495   2503      1
  2572   2495   2505      1
  2573   2496   2497      1
  2574   2496   2500      1
  2575   2496   2504      1
  2576   2497   2498      1
  2577   2498   2499      1
  2578   2498   2501      1
  2579   2499   2500      1
  2580   2499   2530      1
  2581   2500   2531      1
  2582   2501   2509      1
  2583   2501   2532      1
  2584   2502   2520      1
  2585   2502   2533      1
  2586   2503   2521      1
  2587   2503   2535      1
  2588   2503   2536      1
  2589   2504   2512      1
  2590   2504   2537      1
  2591   2505   2723      1
  2592   2506   2507      1
  2593   2507   2508      1
  2594   2507   2538      1
  2595   2508   2509      1
  2596   2508   2539      1
  2597   2509   2510      1
  2598   2510   2534      1
  2599   2511   2512      1
  2600   2513   2514      1
  2601   2513   2540      1
  2602   2514   2515      1
  2603   2514   2541      1
  2604   2515   2527      1
  2605   2516   2517      1
  2606   2516   2520      1
  2607   2517   2518      1
  2608   2517   2526      1
  2609   2518   2519      1
  2610   2518   2542      1
  2611   2519   2520      1
  2612   2519   2543      1
  2613   2521   2522      1
  2614   2521   2525      1
  2615   2522   2523      1
  2616   2522   2544      1
  2617   2523   2524      1
  2618   2523   2545      1
  2619   2524   2525      1
  2620   2524   2565      1
  2621   2524   2596      1
  2622   2526   2546      1
  2623   2526   2547      1
  2624   2527   2548      1
  2625   2527   2549      1
  2626   2550   2551      1
  2627   2550   2557      1
  2628   2550   2560      1
  2629   2550   2563      1
  2630   2551   2552      1
  2631   2551   2586      1
  2632   2552   2553      1
  2633   2552   2587      1
  2634   2553   2558      1
  2635   2553   2561      1
  2636   2553   2563      1
  2637   2554   2555      1
  2638   2554   2558      1
  2639   2555   2556      1
  2640   2556   2557      1
  2641   2556   2559      1
  2642   2557   2558      1
  2643   2557   2588      1
  2644   2558   2589      1
  2645   2559   2567      1
  2646   2560   2578      1
  2647   2560   2591      1
  2648   2560   2592      1
  2649   2561   2579      1
  2650   2561   2593      1
  2651   2561   2594      1
  2652   2562   2570      1
  2653   2562   2595      1
  2654   2564   2568      1
  2655   2564   2690      1
  2656   2565   2566      1
  2657   2566   2567      1
  2658   2566   2597      1
  2659   2569   2570      1
  2660   2569   2573      1
  2661   2570   2571      1
  2662   2571   2572      1
  2663   2571   2598      1
  2664   2572   2573      1
  2665   2572   2599      1
  2666   2573   2585      1
  2667   2574   2575      1
  2668   2574   2578      1
  2669   2575   2576      1
  2670   2575   2584      1
  2671   2576   2577      1
  2672   2576   2600      1
  2673   2577   2578      1
  2674   2577   2601      1
  2675   2579   2580      1
  2676   2580   2581      1
  2677   2580   2602      1
  2678   2581   2603      1
  2679   2582   4266      1
  2680   2584   2604      1
  2681   2584   2605      1
  2682   2585   2606      1
  2683   2608   2609      1
  2684   2608   2615      1
  2685   2608   2618      1
  2686   2609   2610      1
  2687   2609   2644      1
  2688   2610   2645      1
  2689   2611   2616      1
  2690   2611   2619      1
  2691   2612   2613      1
  2692   2612   2616      1
  2693   2612   2620      1
  2694   2614   2615      1
  2695   2614   2617      1
  2696   2615   2646      1
  2697   2616   2647      1
  2698   2617   2625      1
  2699   2617   2648      1
  2700   2618   2636      1
  2701   2618   2649      1
  2702   2618   2650      1
  2703   2619   2637      1
  2704   2619   2651      1
  2705   2619   2652      1
  2706   2620   2628      1
  2707   2620   2653      1
  2708   2621   2722      1
  2709   2622   2623      1
  2710   2622   2626      1
  2711   2622   2643      1
  2712   2623   2624      1
  2713   2623   2654      1
  2714   2624   2625      1
  2715   2624   2655      1
  2716   2625   2626      1
  2717   2627   2628      1
  2718   2627   2631      1
  2719   2628   2629      1
  2720   2629   2630      1
  2721   2629   2656      1
  2722   2630   2631      1
  2723   2630   2657      1
  2724   2632   2636      1
  2725   2633   2634      1
  2726   2634   2635      1
  2727   2634   2658      1
  2728   2635   2636      1
  2729   2635   2659      1
  2730   2637   2638      1
  2731   2637   2701      1
  2732   2638   2660      1
  2733   2638   2701      1
  2734   2639   2640      1
  2735   2639   2680      1
  2736   2640   2641      1
  2737   2640   2642      1
  2738   2642   2662      1
  2739   2642   2663      1
  2740   2643   2664      1
  2741   2643   2665      1
  2742   2661   2679      1
  2743   2666   2667      1
  2744   2666   2673      1
  2745   2666   2676      1
  2746   2666   2679      1
  2747   2667   2668      1
  2748   2667   2702      1
  2749   2668   2669      1
  2750   2668   2703      1
  2751   2669   2674      1
  2752   2669   2677      1
  2753   2670   2671      1
  2754   2670   2674      1
  2755   2670   2678      1
  2756   2671   2672      1
  2757   2672   2673      1
  2758   2672   2675      1
  2759   2673   2674      1
  2760   2673   2704      1
  2761   2674   2705      1
  2762   2675   2683      1
  2763   2675   2706      1
  2764   2676   2694      1
  2765   2676   2707      1
  2766   2676   2708      1
  2767   2677   2695      1
  2768   2677   2709      1
  2769   2678   2686      1
  2770   2678   2711      1
  2771   2680   2681      1
  2772   2680   2684      1
  2773   2681   2682      1
  2774   2682   2683      1
  2775   2682   2713      1
  2776   2683   2684      1
  2777   2685   2686      1
  2778   2685   2710      1
  2779   2686   2687      1
  2780   2687   2688      1
  2781   2687   2714      1
  2782   2688   2689      1
  2783   2688   2715      1
  2784   2690   2694      1
  2785   2691   2692      1
  2786   2692   2693      1
  2787   2692   2716      1
  2788   2693   2694      1
  2789   2693   2717      1
  2790   2695   2696      1
  2791   2695   2699      1
  2792   2696   2697      1
  2793   2696   2718      1
  2794   2697   2698      1
  2795   2697   2719      1
  2796   2698   2699      1
  2797   2698   2700      1
  2798   2700   2720      1
  2799   2700   2721      1
  2800   2724   2725      1
  2801   2724   2730      1
  2802   2724   2737      1
  2803   2725   2743      1
  2804   2726   2727      1
  2805   2726   2744      1
  2806   2727   2728      1
  2807   2727   2729      1
  2808   2728   2731      1
  2809   2728   2745      1
  2810   2728   2746      1
  2811   2731   2732      1
  2812   2731   2735      1
  2813   2732   2733      1
  2814   2732   2747      1
  2815   2733   2734      1
  2816   2733   2748      1
  2817   2734   2735      1
  2818   2734   2736      1
  2819   2736   2749      1
  2820   2736   2750      1
  2821   2737   2741      1
  2822   2737   2751      1
  2823   2738   2739      1
  2824   2738   4159      1
  2825   2739   2753      1
  2826   2740   2741      1
  2827   2740   2754      1
  2828   2742   2769      1
  2829   2755   2756      1
  2830   2755   2761      1
  2831   2755   2768      1
  2832   2756   2757      1
  2833   2756   2774      1
  2834   2757   2758      1
  2835   2757   2775      1
  2836   2758   2759      1
  2837   2758   2760      1
  2838   2759   2762      1
  2839   2759   2776      1
  2840   2759   2777      1
  2841   2762   2763      1
  2842   2762   2766      1
  2843   2763   2764      1
  2844   2763   2778      1
  2845   2764   2765      1
  2846   2764   2779      1
  2847   2765   2766      1
  2848   2765   2767      1
  2849   2767   2780      1
  2850   2767   2781      1
  2851   2768   2772      1
  2852   2768   2782      1
  2853   2768   2783      1
  2854   2769   2770      1
  2855   2770   2771      1
  2856   2771   2772      1
  2857   2771   2785      1
  2858   2772   2773      1
  2859   2786   2787      1
  2860   2786   2790      1
  2861   2786   2791      1
  2862   2787   2788      1
  2863   2788   2789      1
  2864   2788   2797      1
  2865   2789   2790      1
  2866   2789   2804      1
  2867   2790   2805      1
  2868   2791   2798      1
  2869   2791   2806      1
  2870   2792   2796      1
  2871   2792   2797      1
  2872   2793   2794      1
  2873   2795   2796      1
  2874   2795   2807      1
  2875   2796   2808      1
  2876   2797   2809      1
  2877   2798   2799      1
  2878   2798   2802      1
  2879   2799   2800      1
  2880   2799   2810      1
  2881   2800   2801      1
  2882   2800   2811      1
  2883   2801   2802      1
  2884   2801   2803      1
  2885   2803   2812      1
  2886   2803   2813      1
  2887   2814   2815      1
  2888   2814   2818      1
  2889   2814   2819      1
  2890   2815   2816      1
  2891   2816   2817      1
  2892   2816   2825      1
  2893   2817   2818      1
  2894   2817   2832      1
  2895   2818   2833      1
  2896   2819   2826      1
  2897   2819   2834      1
  2898   2820   2821      1
  2899   2820   2824      1
  2900   2820   2825      1
  2901   2821   2822      1
  2902   2822   2823      1
  2903   2822   3264      1
  2904   2823   2824      1
  2905   2823   2835      1
  2906   2824   2836      1
  2907   2825   2837      1
  2908   2826   2827      1
  2909   2826   2830      1
  2910   2827   2828      1
  2911   2827   2838      1
  2912   2828   2829      1
  2913   2828   2839      1
  2914   2829   2830      1
  2915   2829   2831      1
  2916   2831   2840      1
  2917   2831   2841      1
  2918   2842   2846      1
  2919   2842   2847      1
  2920   2843   2844      1
  2921   2844   2845      1
  2922   2844   2848      1
  2923   2845   2846      1
  2924   2845   2849      1
  2925   2846   2850      1
  2926   2847   2851      1
  2927   2848   2852      1
  2928   2853   2854      1
  2929   2853   2857      1
  2930   2853   2858      1
  2931   2854   2855      1
  2932   2855   2856      1
  2933   2855   2859      1
  2934   2856   2857      1
  2935   2856   2860      1
  2936   2857   2861      1
  2937   2858   2862      1
  2938   2859   2863      1
  2939   2859   3699      1
  2940   2864   2865      1
  2941   2864   2868      1
  2942   2864   2869      1
  2943   2865   2866      1
  2944   2866   2867      1
  2945   2866   2870      1
  2946   2867   2868      1
  2947   2867   2871      1
  2948   2868   2872      1
  2949   2869   2873      1
  2950   2869   3826      1
  2951   2870   2874      1
  2952   2875   2876      1
  2953   2875   2879      1
  2954   2875   2880      1
  2955   2877   2878      1
  2956   2877   2881      1
  2957   2878   2879      1
  2958   2878   2882      1
  2959   2879   2883      1
  2960   2880   2884      1
  2961   2881   2885      1
  2962   2886   2887      1
  2963   2886   2893      1
  2964   2886   2896      1
  2965   2887   2888      1
  2966   2887   2922      1
  2967   2888   2889      1
  2968   2888   2923      1
  2969   2889   2894      1
  2970   2889   2897      1
  2971   2889   2899      1
  2972   2890   2891      1
  2973   2890   2894      1
  2974   2890   2898      1
  2975   2891   2892      1
  2976   2892   2893      1
  2977   2892   2895      1
  2978   2893   2894      1
  2979   2893   2924      1
  2980   2894   2925      1
  2981   2895   2903      1
  2982   2895   2926      1
  2983   2896   2914      1
  2984   2896   2928      1
  2985   2897   2915      1
  2986   2897   2929      1
  2987   2897   2930      1
  2988   2898   2906      1
  2989   2898   2931      1
  2990   2899   3117      1
  2991   2900   2901      1
  2992   2900   3635      1
  2993   2901   2902      1
  2994   2901   2932      1
  2995   2902   2903      1
  2996   2902   2933      1
  2997   2903   2904      1
  2998   2904   2927      1
  2999   2905   2906      1
  3000   2905   2909      1
  3001   2906   2907      1
  3002   2907   2908      1
  3003   2907   2934      1
  3004   2908   2909      1
  3005   2908   2935      1
  3006   2909   2921      1
  3007   2910   2911      1
  3008   2910   2914      1
  3009   2911   2912      1
  3010   2911   2920      1
  3011   2912   2913      1
  3012   2912   2936      1
  3013   2913   2914      1
  3014   2913   2937      1
  3015   2915   2916      1
  3016   2915   2919      1
  3017   2916   2917      1
  3018   2916   2938      1
  3019   2917   2918      1
  3020   2917   2939      1
  3021   2918   2919      1
  3022   2918   2959      1
  3023   2918   2990      1
  3024   2920   2940      1
  3025   2920   2941      1
  3026   2921   2942      1
  3027   2921   2943      1
  3028   2944   2945      1
  3029   2944   2951      1
  3030   2944   2954      1
  3031   2945   2946      1
  3032   2945   2980      1
  3033   2946   2947      1
  3034   2946   2981      1
  3035   2947   2952      1
  3036   2948   2949      1
  3037   2948   2956      1
  3038   2949   2950      1
  3039   2950   2953      1
  3040   2951   2952      1
  3041   2951   2982      1
  3042   2952   2983      1
  3043   2953   2961      1
  3044   2953   2984      1
  3045   2954   2985      1
  3046   2954   2986      1
  3047   2955   2973      1
  3048   2955   2988      1
  3049   2956   2964      1
  3050   2956   2989      1
  3051   2958   2959      1
  3052   2959   2960      1
  3053   2960   2991      1
  3054   2961   2962      1
  3055   2962   3085      1
  3056   2963   2967      1
  3057   2964   2965      1
  3058   2965   2966      1
  3059   2965   2992      1
  3060   2966   2993      1
  3061   2967   2979      1
  3062   2968   2969      1
  3063   2968   2972      1
  3064   2969   2970      1
  3065   2969   2978      1
  3066   2970   2971      1
  3067   2970   2994      1
  3068   2971   2972      1
  3069   2971   2995      1
  3070   2973   2974      1
  3071   2973   2977      1
  3072   2974   2975      1
  3073   2974   2996      1
  3074   2975   2976      1
  3075   2975   2997      1
  3076   2978   2998      1
  3077   2978   2999      1
  3078   2979   3000      1
  3079   2979   3001      1
  3080   3002   3003      1
  3081   3002   3012      1
  3082   3003   3004      1
  3083   3003   3038      1
  3084   3004   3039      1
  3085   3005   3010      1
  3086   3005   3013      1
  3087   3005   3015      1
  3088   3006   3007      1
  3089   3006   3010      1
  3090   3006   3014      1
  3091   3007   3008      1
  3092   3008   3009      1
  3093   3008   3011      1
  3094   3009   3010      1
  3095   3009   3040      1
  3096   3010   3041      1
  3097   3011   3042      1
  3098   3012   3030      1
  3099   3012   3043      1
  3100   3012   3044      1
  3101   3013   3031      1
  3102   3013   3045      1
  3103   3013   3046      1
  3104   3014   3022      1
  3105   3014   3047      1
  3106   3015   3116      1
  3107   3016   3017      1
  3108   3016   3020      1
  3109   3016   3037      1
  3110   3017   3018      1
  3111   3017   3048      1
  3112   3018   3019      1
  3113   3018   3049      1
  3114   3019   3020      1
  3115   3021   3022      1
  3116   3021   3025      1
  3117   3022   3023      1
  3118   3023   3024      1
  3119   3023   3050      1
  3120   3024   3025      1
  3121   3024   3051      1
  3122   3026   3030      1
  3123   3027   3028      1
  3124   3027   4638      1
  3125   3028   3029      1
  3126   3028   3052      1
  3127   3029   3030      1
  3128   3029   3053      1
  3129   3031   3032      1
  3130   3031   3035      1
  3131   3031   3095      1
  3132   3032   3054      1
  3133   3032   3095      1
  3134   3033   3034      1
  3135   3033   3074      1
  3136   3033   3095      1
  3137   3034   3035      1
  3138   3034   3036      1
  3139   3036   3056      1
  3140   3037   3058      1
  3141   3037   3059      1
  3142   3055   3073      1
  3143   3060   3061      1
  3144   3060   3067      1
  3145   3060   3070      1
  3146   3060   3073      1
  3147   3061   3062      1
  3148   3061   3096      1
  3149   3062   3063      1
  3150   3062   3097      1
  3151   3063   3068      1
  3152   3063   3071      1
  3153   3064   3065      1
  3154   3064   3068      1
  3155   3064   3072      1
  3156   3065   3066      1
  3157   3066   3067      1
  3158   3066   3069      1
  3159   3067   3068      1
  3160   3067   3098      1
  3161   3068   3099      1
  3162   3069   3077      1
  3163   3069   3100      1
  3164   3070   3088      1
  3165   3070   3101      1
  3166   3070   3102      1
  3167   3071   3089      1
  3168   3071   3104      1
  3169   3072   3080      1
  3170   3072   3105      1
  3171   3074   3075      1
  3172   3074   3078      1
  3173   3075   3076      1
  3174   3075   3106      1
  3175   3076   3077      1
  3176   3076   3107      1
  3177   3077   3078      1
  3178   3079   3080      1
  3179   3079   3103      1
  3180   3080   3081      1
  3181   3081   3082      1
  3182   3081   3108      1
  3183   3082   3083      1
  3184   3082   3109      1
  3185   3084   3088      1
  3186   3084   3669      1
  3187   3085   3086      1
  3188   3086   3087      1
  3189   3086   3110      1
  3190   3087   3088      1
  3191   3087   3111      1
  3192   3089   3090      1
  3193   3089   3093      1
  3194   3090   3091      1
  3195   3090   3112      1
  3196   3091   3092      1
  3197   3091   3113      1
  3198   3092   3093      1
  3199   3092   3094      1
  3200   3094   3114      1
  3201   3094   3115      1
  3202   3118   3119      1
  3203   3118   3124      1
  3204   3118   3131      1
  3205   3119   3120      1
  3206   3119   3137      1
  3207   3120   3121      1
  3208   3120   3138      1
  3209   3121   3122      1
  3210   3121   3123      1
  3211   3122   3125      1
  3212   3122   3139      1
  3213   3122   3140      1
  3214   3125   3126      1
  3215   3125   3129      1
  3216   3126   3127      1
  3217   3126   3141      1
  3218   3127   3128      1
  3219   3127   3142      1
  3220   3128   3129      1
  3221   3128   3130      1
  3222   3130   3143      1
  3223   3130   3144      1
  3224   3131   3135      1
  3225   3131   3145      1
  3226   3131   3146      1
  3227   3132   3133      1
  3228   3133   3134      1
  3229   3133   3147      1
  3230   3134   3135      1
  3231   3134   3148      1
  3232   3135   3136      1
  3233   3149   3150      1
  3234   3149   3155      1
  3235   3149   3162      1
  3236   3150   3151      1
  3237   3150   3168      1
  3238   3151   3152      1
  3239   3151   3169      1
  3240   3152   3153      1
  3241   3152   3154      1
  3242   3153   3156      1
  3243   3153   3170      1
  3244   3153   3171      1
  3245   3156   3157      1
  3246   3156   3160      1
  3247   3157   3158      1
  3248   3157   3172      1
  3249   3158   3159      1
  3250   3158   3173      1
  3251   3159   3160      1
  3252   3159   3161      1
  3253   3161   3174      1
  3254   3161   3175      1
  3255   3162   3166      1
  3256   3162   3176      1
  3257   3162   3177      1
  3258   3163   3164      1
  3259   3164   3165      1
  3260   3164   3178      1
  3261   3165   3166      1
  3262   3165   3179      1
  3263   3166   3167      1
  3264   3180   3181      1
  3265   3180   3184      1
  3266   3180   3185      1
  3267   3181   3182      1
  3268   3182   3183      1
  3269   3182   3191      1
  3270   3183   3184      1
  3271   3183   3198      1
  3272   3184   3199      1
  3273   3185   3192      1
  3274   3185   3200      1
  3275   3186   3187      1
  3276   3186   3190      1
  3277   3186   3191      1
  3278   3187   4639      1
  3279   3188   3189      1
  3280   3188   4516      1
  3281   3189   3190      1
  3282   3189   3201      1
  3283   3190   3202      1
  3284   3191   3203      1
  3285   3192   3193      1
  3286   3192   3196      1
  3287   3193   3194      1
  3288   3193   3204      1
  3289   3194   3195      1
  3290   3194   3205      1
  3291   3195   3197      1
  3292   3197   3206      1
  3293   3197   3207      1
  3294   3208   3209      1
  3295   3208   3212      1
  3296   3209   3210      1
  3297   3210   3211      1
  3298   3210   3219      1
  3299   3211   3212      1
  3300   3211   3226      1
  3301   3212   3227      1
  3302   3213   3220      1
  3303   3213   3228      1
  3304   3214   3215      1
  3305   3214   3218      1
  3306   3214   3219      1
  3307   3215   3216      1
  3308   3216   3217      1
  3309   3217   3218      1
  3310   3217   3229      1
  3311   3218   3230      1
  3312   3219   3231      1
  3313   3220   3221      1
  3314   3220   3224      1
  3315   3221   3222      1
  3316   3221   3232      1
  3317   3222   3223      1
  3318   3222   3233      1
  3319   3223   3224      1
  3320   3223   3225      1
  3321   3225   3234      1
  3322   3225   3235      1
  3323   3236   3237      1
  3324   3236   3240      1
  3325   3236   3241      1
  3326   3237   3238      1
  3327   3238   3239      1
  3328   3238   3242      1
  3329   3239   3240      1
  3330   3239   3243      1
  3331   3240   3244      1
  3332   3241   3245      1
  3333   3242   3246      1
  3334   3247   3248      1
  3335   3247   3251      1
  3336   3247   3252      1
  3337   3248   3249      1
  3338   3249   3250      1
  3339   3249   3253      1
  3340   3250   3251      1
  3341   3250   3254      1
  3342   3251   3255      1
  3343   3252   3256      1
  3344   3252   4430      1
  3345   3253   3257      1
  3346   3258   3259      1
  3347   3258   3262      1
  3348   3258   3263      1
  3349   3259   3260      1
  3350   3260   3261      1
  3351   3260   3264      1
  3352   3261   3262      1
  3353   3261   3265      1
  3354   3262   3266      1
  3355   3263   3267      1
  3356   3264   3268      1
  3357   3269   3270      1
  3358   3269   3274      1
  3359   3270   3271      1
  3360   3271   3275      1
  3361   3272   3273      1
  3362   3272   3276      1
  3363   3273   3277      1
  3364   3274   3278      1
  3365   3275   3279      1
  3366   3280   3281      1
  3367   3280   3287      1
  3368   3280   3290      1
  3369   3281   3282      1
  3370   3281   3316      1
  3371   3282   3283      1
  3372   3282   3317      1
  3373   3283   3288      1
  3374   3283   3291      1
  3375   3284   3285      1
  3376   3284   3288      1
  3377   3284   3292      1
  3378   3285   3286      1
  3379   3286   3287      1
  3380   3286   3289      1
  3381   3287   3288      1
  3382   3287   3318      1
  3383   3288   3319      1
  3384   3289   3297      1
  3385   3289   3320      1
  3386   3290   3308      1
  3387   3290   3321      1
  3388   3290   3322      1
  3389   3291   3309      1
  3390   3291   3323      1
  3391   3291   3324      1
  3392   3292   3300      1
  3393   3292   3325      1
  3394   3293   3352      1
  3395   3293   3511      1
  3396   3294   3295      1
  3397   3294   3761      1
  3398   3295   3296      1
  3399   3295   3326      1
  3400   3296   3297      1
  3401   3296   3327      1
  3402   3297   3298      1
  3403   3298   3757      1
  3404   3299   3300      1
  3405   3299   3303      1
  3406   3300   3301      1
  3407   3301   3302      1
  3408   3301   3328      1
  3409   3302   3303      1
  3410   3302   3329      1
  3411   3303   3315      1
  3412   3304   3305      1
  3413   3304   3308      1
  3414   3305   3306      1
  3415   3305   3314      1
  3416   3306   3307      1
  3417   3306   3330      1
  3418   3307   3308      1
  3419   3307   3331      1
  3420   3309   3310      1
  3421   3309   3313      1
  3422   3310   3311      1
  3423   3310   3332      1
  3424   3311   3312      1
  3425   3311   3333      1
  3426   3312   3313      1
  3427   3312   3353      1
  3428   3312   3384      1
  3429   3314   3334      1
  3430   3314   3335      1
  3431   3315   3336      1
  3432   3315   3337      1
  3433   3338   3339      1
  3434   3338   3345      1
  3435   3338   3348      1
  3436   3338   3351      1
  3437   3339   3340      1
  3438   3339   3374      1
  3439   3340   3341      1
  3440   3341   3346      1
  3441   3341   3349      1
  3442   3342   3343      1
  3443   3342   3346      1
  3444   3343   3344      1
  3445   3344   3345      1
  3446   3344   3347      1
  3447   3345   3346      1
  3448   3345   3376      1
  3449   3346   3377      1
  3450   3347   3355      1
  3451   3347   3378      1
  3452   3348   3366      1
  3453   3348   3379      1
  3454   3348   3380      1
  3455   3349   3367      1
  3456   3350   3358      1
  3457   3350   3383      1
  3458   3352   3353      1
  3459   3352   3356      1
  3460   3353   3354      1
  3461   3354   3355      1
  3462   3354   3385      1
  3463   3355   3356      1
  3464   3357   3358      1
  3465   3357   3361      1
  3466   3358   3359      1
  3467   3359   3360      1
  3468   3359   3386      1
  3469   3360   3361      1
  3470   3360   3387      1
  3471   3362   3363      1
  3472   3362   3366      1
  3473   3363   3364      1
  3474   3363   3372      1
  3475   3364   3365      1
  3476   3364   3388      1
  3477   3365   3366      1
  3478   3365   3389      1
  3479   3368   3369      1
  3480   3369   3370      1
  3481   3369   3391      1
  3482   3372   3392      1
  3483   3372   3393      1
  3484   3373   3394      1
  3485   3373   3395      1
  3486   3382   3473      1
  3487   3396   3397      1
  3488   3396   3403      1
  3489   3396   3406      1
  3490   3397   3398      1
  3491   3397   3432      1
  3492   3398   3399      1
  3493   3398   3433      1
  3494   3399   3404      1
  3495   3399   3407      1
  3496   3399   3409      1
  3497   3400   3401      1
  3498   3400   3404      1
  3499   3400   3408      1
  3500   3401   3402      1
  3501   3402   3403      1
  3502   3402   3405      1
  3503   3403   3404      1
  3504   3403   3434      1
  3505   3404   3435      1
  3506   3405   3413      1
  3507   3405   3436      1
  3508   3406   3424      1
  3509   3406   3437      1
  3510   3406   3438      1
  3511   3407   3425      1
  3512   3407   3439      1
  3513   3407   3440      1
  3514   3408   3416      1
  3515   3408   3441      1
  3516   3409   3510      1
  3517   3410   3411      1
  3518   3410   3414      1
  3519   3410   3431      1
  3520   3411   3412      1
  3521   3411   3442      1
  3522   3412   3413      1
  3523   3412   3443      1
  3524   3413   3414      1
  3525   3415   3416      1
  3526   3415   3419      1
  3527   3417   3418      1
  3528   3417   3444      1
  3529   3418   3445      1
  3530   3420   3424      1
  3531   3421   3422      1
  3532   3422   3423      1
  3533   3422   3446      1
  3534   3423   3424      1
  3535   3423   3447      1
  3536   3425   3426      1
  3537   3425   3429      1
  3538   3425   3489      1
  3539   3426   3448      1
  3540   3426   3489      1
  3541   3427   3428      1
  3542   3427   3468      1
  3543   3427   3489      1
  3544   3428   3429      1
  3545   3428   3430      1
  3546   3430   3450      1
  3547   3430   3451      1
  3548   3431   3452      1
  3549   3431   3453      1
  3550   3449   3467      1
  3551   3454   3455      1
  3552   3454   3461      1
  3553   3454   3464      1
  3554   3454   3467      1
  3555   3455   3456      1
  3556   3455   3490      1
  3557   3456   3457      1
  3558   3456   3491      1
  3559   3457   3462      1
  3560   3457   3465      1
  3561   3458   3459      1
  3562   3458   3466      1
  3563   3459   3460      1
  3564   3460   3463      1
  3565   3461   3462      1
  3566   3461   3492      1
  3567   3462   3493      1
  3568   3463   3471      1
  3569   3463   3494      1
  3570   3464   3482      1
  3571   3464   3495      1
  3572   3464   3496      1
  3573   3465   3483      1
  3574   3465   3497      1
  3575   3465   3498      1
  3576   3466   3474      1
  3577   3466   3499      1
  3578   3468   3472      1
  3579   3469   3470      1
  3580   3469   3500      1
  3581   3470   3471      1
  3582   3470   3501      1
  3583   3473   3474      1
  3584   3474   3475      1
  3585   3475   3476      1
  3586   3475   3502      1
  3587   3476   3477      1
  3588   3478   3482      1
  3589   3479   3480      1
  3590   3480   3481      1
  3591   3480   3504      1
  3592   3481   3482      1
  3593   3481   3505      1
  3594   3483   3484      1
  3595   3483   3487      1
  3596   3484   3485      1
  3597   3484   3506      1
  3598   3485   3486      1
  3599   3485   3507      1
  3600   3486   3487      1
  3601   3486   3488      1
  3602   3488   3508      1
  3603   3488   3509      1
  3604   3512   3513      1
  3605   3512   3518      1
  3606   3512   3525      1
  3607   3513   3514      1
  3608   3513   3531      1
  3609   3514   3515      1
  3610   3514   3532      1
  3611   3515   3516      1
  3612   3515   3517      1
  3613   3516   3519      1
  3614   3516   3533      1
  3615   3516   3534      1
  3616   3519   3520      1
  3617   3519   3523      1
  3618   3520   3521      1
  3619   3520   3535      1
  3620   3521   3522      1
  3621   3521   3536      1
  3622   3522   3523      1
  3623   3522   3524      1
  3624   3524   3537      1
  3625   3524   3538      1
  3626   3525   3529      1
  3627   3525   3539      1
  3628   3525   3540      1
  3629   3526   3527      1
  3630   3527   3528      1
  3631   3527   3541      1
  3632   3528   3529      1
  3633   3528   3542      1
  3634   3529   3530      1
  3635   3543   3544      1
  3636   3543   3549      1
  3637   3543   3556      1
  3638   3544   3545      1
  3639   3544   3562      1
  3640   3545   3546      1
  3641   3545   3563      1
  3642   3546   3547      1
  3643   3546   3548      1
  3644   3547   3550      1
  3645   3547   3565      1
  3646   3550   3551      1
  3647   3550   3554      1
  3648   3551   3552      1
  3649   3551   3566      1
  3650   3552   3553      1
  3651   3552   3567      1
  3652   3553   3554      1
  3653   3553   3555      1
  3654   3555   3568      1
  3655   3555   3569      1
  3656   3556   3560      1
  3657   3556   3570      1
  3658   3556   3571      1
  3659   3557   4063      1
  3660   3558   3559      1
  3661   3558   3572      1
  3662   3559   3560      1
  3663   3559   3573      1
  3664   3560   3561      1
  3665   3574   3575      1
  3666   3574   3578      1
  3667   3574   3579      1
  3668   3575   3576      1
  3669   3576   3577      1
  3670   3576   3585      1
  3671   3577   3578      1
  3672   3577   3592      1
  3673   3578   3593      1
  3674   3579   3586      1
  3675   3579   3594      1
  3676   3580   3581      1
  3677   3580   3584      1
  3678   3580   3585      1
  3679   3581   3582      1
  3680   3582   3583      1
  3681   3582   3636      1
  3682   3583   3584      1
  3683   3583   3595      1
  3684   3584   3596      1
  3685   3585   3597      1
  3686   3586   3590      1
  3687   3587   3588      1
  3688   3587   3598      1
  3689   3588   3589      1
  3690   3588   3599      1
  3691   3589   3591      1
  3692   3591   3600      1
  3693   3591   3601      1
  3694   3602   3603      1
  3695   3602   3606      1
  3696   3602   3607      1
  3697   3603   3604      1
  3698   3604   3605      1
  3699   3605   3606      1
  3700   3605   3620      1
  3701   3606   3621      1
  3702   3607   3614      1
  3703   3607   3622      1
  3704   3608   3609      1
  3705   3608   3612      1
  3706   3608   3613      1
  3707   3609   3610      1
  3708   3610   3611      1
  3709   3611   3612      1
  3710   3611   3623      1
  3711   3613   3625      1
  3712   3614   3615      1
  3713   3614   3618      1
  3714   3615   3616      1
  3715   3615   3626      1
  3716   3616   3617      1
  3717   3616   3627      1
  3718   3617   3618      1
  3719   3617   3619      1
  3720   3619   3628      1
  3721   3619   3629      1
  3722   3630   3631      1
  3723   3630   3634      1
  3724   3630   3635      1
  3725   3631   3632      1
  3726   3632   3633      1
  3727   3632   3636      1
  3728   3633   3634      1
  3729   3633   3637      1
  3730   3634   3638      1
  3731   3635   3639      1
  3732   3636   3640      1
  3733   3641   3642      1
  3734   3641   3645      1
  3735   3641   3646      1
  3736   3643   3644      1
  3737   3643   3647      1
  3738   3644   3645      1
  3739   3644   3648      1
  3740   3645   3649      1
  3741   3646   3650      1
  3742   3652   3656      1
  3743   3652   3657      1
  3744   3653   3654      1
  3745   3654   3655      1
  3746   3654   3658      1
  3747   3655   3656      1
  3748   3655   3659      1
  3749   3656   3660      1
  3750   3657   3661      1
  3751   3658   3662      1
  3752   3663   3667      1
  3753   3663   3668      1
  3754   3664   3665      1
  3755   3665   3666      1
  3756   3665   3669      1
  3757   3666   3670      1
  3758   3667   3671      1
  3759   3668   3672      1
  3760   3669   3673      1
  3761   3674   3675      1
  3762   3674   3678      1
  3763   3674   3679      1
  3764   3675   3676      1
  3765   3676   3677      1
  3766   3676   3680      1
  3767   3677   3678      1
  3768   3677   3681      1
  3769   3678   3682      1
  3770   3679   3683      1
  3771   3685   3686      1
  3772   3685   3692      1
  3773   3685   3695      1
  3774   3686   3687      1
  3775   3686   3721      1
  3776   3687   3688      1
  3777   3687   3722      1
  3778   3688   3693      1
  3779   3688   3696      1
  3780   3689   3693      1
  3781   3689   3697      1
  3782   3689   3724      1
  3783   3690   3691      1
  3784   3691   3692      1
  3785   3691   3694      1
  3786   3692   3693      1
  3787   3692   3723      1
  3788   3694   3702      1
  3789   3694   3725      1
  3790   3695   3713      1
  3791   3695   3727      1
  3792   3696   3714      1
  3793   3696   3728      1
  3794   3696   3729      1
  3795   3697   3705      1
  3796   3697   3730      1
  3797   3698   3916      1
  3798   3698   4530      1
  3799   3699   3700      1
  3800   3700   3701      1
  3801   3700   3731      1
  3802   3701   3702      1
  3803   3701   3732      1
  3804   3702   3703      1
  3805   3703   3726      1
  3806   3704   3705      1
  3807   3704   3708      1
  3808   3705   3706      1
  3809   3706   3707      1
  3810   3706   3733      1
  3811   3707   3708      1
  3812   3707   3734      1
  3813   3708   3720      1
  3814   3709   3710      1
  3815   3709   3713      1
  3816   3710   3711      1
  3817   3710   3719      1
  3818   3711   3712      1
  3819   3711   3735      1
  3820   3712   3713      1
  3821   3712   3736      1
  3822   3714   3715      1
  3823   3714   3718      1
  3824   3715   3716      1
  3825   3715   3737      1
  3826   3716   3717      1
  3827   3716   3738      1
  3828   3717   3758      1
  3829   3717   3789      1
  3830   3719   3739      1
  3831   3719   3740      1
  3832   3720   3741      1
  3833   3720   3742      1
  3834   3743   3750      1
  3835   3743   3753      1
  3836   3744   3745      1
  3837   3745   3746      1
  3838   3745   3780      1
  3839   3746   3751      1
  3840   3746   3754      1
  3841   3747   3748      1
  3842   3747   3751      1
  3843   3747   3755      1
  3844   3749   3750      1
  3845   3749   3752      1
  3846   3750   3781      1
  3847   3751   3782      1
  3848   3752   3760      1
  3849   3752   3783      1
  3850   3753   3771      1
  3851   3753   3784      1
  3852   3753   3785      1
  3853   3754   3772      1
  3854   3754   3786      1
  3855   3754   3787      1
  3856   3755   3763      1
  3857   3755   3788      1
  3858   3757   3758      1
  3859   3758   3759      1
  3860   3759   3760      1
  3861   3759   3790      1
  3862   3760   3761      1
  3863   3762   3763      1
  3864   3762   3766      1
  3865   3763   3764      1
  3866   3764   3765      1
  3867   3764   3791      1
  3868   3765   3766      1
  3869   3765   3792      1
  3870   3766   3778      1
  3871   3767   3768      1
  3872   3767   3771      1
  3873   3768   3769      1
  3874   3768   3777      1
  3875   3769   3770      1
  3876   3769   3793      1
  3877   3770   3771      1
  3878   3770   3794      1
  3879   3772   3773      1
  3880   3772   3776      1
  3881   3773   3774      1
  3882   3773   3795      1
  3883   3774   3775      1
  3884   3774   3796      1
  3885   3777   3797      1
  3886   3777   3798      1
  3887   3778   3799      1
  3888   3778   3800      1
  3889   3801   3802      1
  3890   3801   3808      1
  3891   3801   3811      1
  3892   3802   3803      1
  3893   3802   3837      1
  3894   3803   3804      1
  3895   3803   3838      1
  3896   3804   3809      1
  3897   3804   3812      1
  3898   3804   3814      1
  3899   3805   3806      1
  3900   3805   3809      1
  3901   3805   3813      1
  3902   3805   3915      1
  3903   3806   3807      1
  3904   3807   3808      1
  3905   3807   3810      1
  3906   3808   3809      1
  3907   3808   3839      1
  3908   3809   3840      1
  3909   3810   3818      1
  3910   3810   3841      1
  3911   3811   3829      1
  3912   3811   3842      1
  3913   3811   3843      1
  3914   3812   3830      1
  3915   3812   3844      1
  3916   3812   3845      1
  3917   3813   3821      1
  3918   3813   3846      1
  3919   3815   3816      1
  3920   3815   3819      1
  3921   3815   3836      1
  3922   3816   3817      1
  3923   3816   3847      1
  3924   3817   3818      1
  3925   3817   3848      1
  3926   3818   3819      1
  3927   3820   3821      1
  3928   3820   3894      1
  3929   3821   3822      1
  3930   3822   3823      1
  3931   3822   3849      1
  3932   3823   3824      1
  3933   3824   3850      1
  3934   3825   3829      1
  3935   3826   3827      1
  3936   3827   3828      1
  3937   3827   3851      1
  3938   3828   3829      1
  3939   3828   3852      1
  3940   3830   3831      1
  3941   3830   3834      1
  3942   3831   3853      1
  3943   3831   3894      1
  3944   3832   3833      1
  3945   3832   3873      1
  3946   3832   3894      1
  3947   3833   3834      1
  3948   3833   3835      1
  3949   3835   3855      1
  3950   3835   3856      1
  3951   3836   3857      1
  3952   3836   3858      1
  3953   3854   3872      1
  3954   3859   3860      1
  3955   3859   3866      1
  3956   3859   3869      1
  3957   3860   3861      1
  3958   3860   3895      1
  3959   3861   3862      1
  3960   3861   3896      1
  3961   3862   3867      1
  3962   3862   3870      1
  3963   3862   3872      1
  3964   3863   3864      1
  3965   3863   3867      1
  3966   3863   3871      1
  3967   3864   3865      1
  3968   3865   3866      1
  3969   3865   3868      1
  3970   3866   3867      1
  3971   3866   3897      1
  3972   3867   3898      1
  3973   3868   3899      1
  3974   3869   3887      1
  3975   3869   3901      1
  3976   3870   3888      1
  3977   3870   3902      1
  3978   3870   3903      1
  3979   3871   3879      1
  3980   3871   3904      1
  3981   3873   3874      1
  3982   3873   3877      1
  3983   3874   3875      1
  3984   3874   3905      1
  3985   3875   3876      1
  3986   3875   3906      1
  3987   3876   3877      1
  3988   3878   3879      1
  3989   3879   3880      1
  3990   3880   3881      1
  3991   3880   3907      1
  3992   3881   3882      1
  3993   3881   3908      1
  3994   3884   3885      1
  3995   3885   3886      1
  3996   3885   3909      1
  3997   3886   3887      1
  3998   3886   3910      1
  3999   3888   3889      1
  4000   3888   3892      1
  4001   3889   3890      1
  4002   3889   3911      1
  4003   3890   3891      1
  4004   3890   3912      1
  4005   3891   3892      1
  4006   3891   3893      1
  4007   3893   3913      1
  4008   3893   3914      1
  4009   3917   3918      1
  4010   3917   3923      1
  4011   3917   3930      1
  4012   3918   3919      1
  4013   3918   3936      1
  4014   3919   3920      1
  4015   3919   3937      1
  4016   3920   3921      1
  4017   3920   3922      1
  4018   3921   3924      1
  4019   3921   3938      1
  4020   3921   3939      1
  4021   3924   3925      1
  4022   3924   3928      1
  4023   3925   3926      1
  4024   3925   3940      1
  4025   3926   3927      1
  4026   3926   3941      1
  4027   3927   3928      1
  4028   3927   3929      1
  4029   3929   3942      1
  4030   3929   3943      1
  4031   3930   3934      1
  4032   3930   3944      1
  4033   3930   3945      1
  4034   3931   3932      1
  4035   3932   3933      1
  4036   3932   3946      1
  4037   3933   3934      1
  4038   3933   3947      1
  4039   3934   3935      1
  4040   3948   3949      1
  4041   3948   3954      1
  4042   3948   3961      1
  4043   3949   3950      1
  4044   3949   3967      1
  4045   3950   3951      1
  4046   3950   3968      1
  4047   3951   3952      1
  4048   3951   3953      1
  4049   3952   3955      1
  4050   3952   3969      1
  4051   3952   3970      1
  4052   3955   3956      1
  4053   3955   3959      1
  4054   3956   3957      1
  4055   3956   3971      1
  4056   3957   3958      1
  4057   3957   3972      1
  4058   3958   3959      1
  4059   3958   3960      1
  4060   3960   3973      1
  4061   3960   3974      1
  4062   3961   3965      1
  4063   3961   3975      1
  4064   3961   3976      1
  4065   3962   3963      1
  4066   3963   3964      1
  4067   3963   3977      1
  4068   3964   3965      1
  4069   3964   3978      1
  4070   3965   3966      1
  4071   3979   3980      1
  4072   3979   3983      1
  4073   3979   3984      1
  4074   3980   3981      1
  4075   3981   3982      1
  4076   3981   3990      1
  4077   3982   3983      1
  4078   3982   3997      1
  4079   3983   3998      1
  4080   3984   3991      1
  4081   3984   3999      1
  4082   3985   3989      1
  4083   3985   3990      1
  4084   3986   4015      1
  4085   3987   3988      1
  4086   3988   3989      1
  4087   3988   4000      1
  4088   3989   4001      1
  4089   3991   3992      1
  4090   3991   3995      1
  4091   3992   3993      1
  4092   3992   4003      1
  4093   3993   3994      1
  4094   3993   4004      1
  4095   3994   3995      1
  4096   3994   3996      1
  4097   3996   4005      1
  4098   3996   4006      1
  4099   4007   4008      1
  4100   4007   4011      1
  4101   4007   4012      1
  4102   4008   4009      1
  4103   4009   4010      1
  4104   4009   4018      1
  4105   4010   4011      1
  4106   4010   4025      1
  4107   4011   4026      1
  4108   4012   4019      1
  4109   4012   4027      1
  4110   4013   4014      1
  4111   4013   4017      1
  4112   4013   4018      1
  4113   4014   4015      1
  4114   4015   4016      1
  4115   4016   4017      1
  4116   4016   4028      1
  4117   4017   4029      1
  4118   4019   4020      1
  4119   4019   4023      1
  4120   4020   4021      1
  4121   4020   4031      1
  4122   4021   4022      1
  4123   4022   4023      1
  4124   4024   4033      1
  4125   4024   4034      1
  4126   4035   4036      1
  4127   4035   4039      1
  4128   4036   4037      1
  4129   4037   4038      1
  4130   4037   4041      1
  4131   4038   4039      1
  4132   4038   4042      1
  4133   4040   4044      1
  4134   4041   4045      1
  4135   4041   4140      1
  4136   4046   4050      1
  4137   4046   4051      1
  4138   4047   4048      1
  4139   4048   4049      1
  4140   4048   4052      1
  4141   4049   4050      1
  4142   4049   4053      1
  4143   4050   4054      1
  4144   4051   4055      1
  4145   4052   4056      1
  4146   4057   4058      1
  4147   4057   4061      1
  4148   4057   4062      1
  4149   4058   4059      1
  4150   4059   4060      1
  4151   4059   4063      1
  4152   4060   4061      1
  4153   4060   4064      1
  4154   4061   4065      1
  4155   4062   4066      1
  4156   4063   4067      1
  4157   4068   4069      1
  4158   4068   4075      1
  4159   4068   4078      1
  4160   4069   4070      1
  4161   4069   4104      1
  4162   4070   4071      1
  4163   4070   4105      1
  4164   4071   4076      1
  4165   4071   4079      1
  4166   4071   4081      1
  4167   4072   4073      1
  4168   4072   4076      1
  4169   4072   4080      1
  4170   4073   4074      1
  4171   4074   4075      1
  4172   4074   4077      1
  4173   4075   4076      1
  4174   4075   4106      1
  4175   4076   4107      1
  4176   4077   4085      1
  4177   4077   4108      1
  4178   4078   4096      1
  4179   4078   4109      1
  4180   4078   4110      1
  4181   4079   4097      1
  4182   4079   4111      1
  4183   4079   4112      1
  4184   4080   4088      1
  4185   4080   4113      1
  4186   4081   4299      1
  4187   4082   4083      1
  4188   4082   4086      1
  4189   4083   4084      1
  4190   4083   4114      1
  4191   4084   4085      1
  4192   4084   4115      1
  4193   4085   4086      1
  4194   4087   4088      1
  4195   4087   4091      1
  4196   4088   4089      1
  4197   4089   4090      1
  4198   4089   4116      1
  4199   4090   4091      1
  4200   4090   4117      1
  4201   4091   4103      1
  4202   4092   4096      1
  4203   4092   4267      1
  4204   4093   4094      1
  4205   4093   4102      1
  4206   4094   4095      1
  4207   4094   4118      1
  4208   4095   4096      1
  4209   4095   4119      1
  4210   4097   4098      1
  4211   4097   4101      1
  4212   4098   4099      1
  4213   4098   4120      1
  4214   4099   4100      1
  4215   4099   4121      1
  4216   4100   4101      1
  4217   4102   4122      1
  4218   4102   4123      1
  4219   4103   4124      1
  4220   4103   4125      1
  4221   4126   4133      1
  4222   4126   4136      1
  4223   4127   4128      1
  4224   4127   4162      1
  4225   4128   4163      1
  4226   4129   4134      1
  4227   4130   4131      1
  4228   4130   4134      1
  4229   4131   4132      1
  4230   4132   4133      1
  4231   4132   4135      1
  4232   4133   4134      1
  4233   4133   4164      1
  4234   4134   4165      1
  4235   4135   4143      1
  4236   4135   4166      1
  4237   4136   4154      1
  4238   4136   4167      1
  4239   4136   4168      1
  4240   4137   4169      1
  4241   4137   4170      1
  4242   4138   4146      1
  4243   4138   4171      1
  4244   4139   4265      1
  4245   4140   4141      1
  4246   4141   4142      1
  4247   4142   4143      1
  4248   4142   4173      1
  4249   4143   4144      1
  4250   4145   4146      1
  4251   4145   4149      1
  4252   4146   4147      1
  4253   4147   4148      1
  4254   4147   4174      1
  4255   4148   4149      1
  4256   4148   4175      1
  4257   4149   4161      1
  4258   4150   4151      1
  4259   4151   4160      1
  4260   4152   4153      1
  4261   4152   4176      1
  4262   4153   4154      1
  4263   4153   4177      1
  4264   4155   4156      1
  4265   4155   4159      1
  4266   4156   4157      1
  4267   4156   4178      1
  4268   4157   4158      1
  4269   4157   4179      1
  4270   4160   4180      1
  4271   4160   4181      1
  4272   4161   4182      1
  4273   4161   4183      1
  4274   4184   4194      1
  4275   4185   4220      1
  4276   4186   4187      1
  4277   4186   4221      1
  4278   4187   4192      1
  4279   4187   4195      1
  4280   4188   4192      1
  4281   4188   4196      1
  4282   4189   4190      1
  4283   4190   4191      1
  4284   4190   4193      1
  4285   4193   4201      1
  4286   4193   4224      1
  4287   4194   4212      1
  4288   4194   4225      1
  4289   4194   4226      1
  4290   4195   4213      1
  4291   4195   4227      1
  4292   4195   4228      1
  4293   4196   4204      1
  4294   4196   4229      1
  4295   4198   4199      1
  4296   4198   4202      1
  4297   4198   4219      1
  4298   4199   4230      1
  4299   4200   4201      1
  4300   4200   4231      1
  4301   4203   4204      1
  4302   4203   4207      1
  4303   4204   4205      1
  4304   4205   4232      1
  4305   4206   4233      1
  4306   4208   4212      1
  4307   4208   4298      1
  4308   4209   4210      1
  4309   4210   4211      1
  4310   4210   4234      1
  4311   4211   4212      1
  4312   4211   4235      1
  4313   4213   4217      1
  4314   4214   4236      1
  4315   4214   4277      1
  4316   4215   4256      1
  4317   4215   4277      1
  4318   4216   4217      1
  4319   4218   4238      1
  4320   4219   4240      1
  4321   4219   4241      1
  4322   4237   4255      1
  4323   4242   4243      1
  4324   4242   4252      1
  4325   4243   4244      1
  4326   4243   4278      1
  4327   4244   4279      1
  4328   4245   4250      1
  4329   4245   4253      1
  4330   4246   4247      1
  4331   4246   4250      1
  4332   4246   4254      1
  4333   4247   4248      1
  4334   4248   4249      1
  4335   4248   4251      1
  4336   4249   4250      1
  4337   4249   4280      1
  4338   4250   4281      1
  4339   4251   4259      1
  4340   4251   4282      1
  4341   4252   4270      1
  4342   4252   4283      1
  4343   4252   4284      1
  4344   4253   4271      1
  4345   4253   4286      1
  4346   4254   4287      1
  4347   4256   4260      1
  4348   4257   4258      1
  4349   4257   4288      1
  4350   4258   4259      1
  4351   4258   4289      1
  4352   4261   4262      1
  4353   4261   4265      1
  4354   4262   4263      1
  4355   4263   4264      1
  4356   4263   4290      1
  4357   4264   4265      1
  4358   4264   4291      1
  4359   4266   4270      1
  4360   4267   4268      1
  4361   4268   4269      1
  4362   4268   4292      1
  4363   4269   4270      1
  4364   4269   4293      1
  4365   4271   4272      1
  4366   4272   4273      1
  4367   4272   4294      1
  4368   4273   4295      1
  4369   4276   4297      1
  4370   4300   4301      1
  4371   4300   4306      1
  4372   4300   4313      1
  4373   4301   4302      1
  4374   4301   4319      1
  4375   4302   4303      1
  4376   4302   4320      1
  4377   4303   4304      1
  4378   4303   4305      1
  4379   4304   4307      1
  4380   4304   4321      1
  4381   4304   4322      1
  4382   4307   4308      1
  4383   4307   4311      1
  4384   4308   4309      1
  4385   4308   4323      1
  4386   4309   4310      1
  4387   4309   4324      1
  4388   4310   4311      1
  4389   4310   4312      1
  4390   4312   4325      1
  4391   4312   4326      1
  4392   4313   4317      1
  4393   4313   4328      1
  4394   4314   4315      1
  4395   4315   4316      1
  4396   4315   4329      1
  4397   4316   4317      1
  4398   4316   4330      1
  4399   4317   4318      1
  4400   4331   4332      1
  4401   4331   4337      1
  4402   4332   4333      1
  4403   4332   4350      1
  4404   4333   4334      1
  4405   4333   4351      1
  4406   4334   4335      1
  4407   4334   4336      1
  4408   4335   4338      1
  4409   4335   4352      1
  4410   4335   4353      1
  4411   4338   4339      1
  4412   4338   4342      1
  4413   4339   4340      1
  4414   4339   4354      1
  4415   4340   4341      1
  4416   4340   4355      1
  4417   4341   4342      1
  4418   4341   4343      1
  4419   4343   4356      1
  4420   4343   4357      1
  4421   4344   4348      1
  4422   4344   4358      1
  4423   4344   4359      1
  4424   4345   4346      1
  4425   4346   4347      1
  4426   4346   4360      1
  4427   4347   4348      1
  4428   4347   4361      1
  4429   4362   4363      1
  4430   4362   4366      1
  4431   4362   4367      1
  4432   4363   4364      1
  4433   4364   4365      1
  4434   4364   4373      1
  4435   4365   4366      1
  4436   4365   4380      1
  4437   4366   4381      1
  4438   4367   4374      1
  4439   4367   4382      1
  4440   4368   4369      1
  4441   4368   4372      1
  4442   4368   4373      1
  4443   4369   4370      1
  4444   4370   4371      1
  4445   4371   4372      1
  4446   4371   4383      1
  4447   4372   4384      1
  4448   4373   4385      1
  4449   4374   4375      1
  4450   4374   4378      1
  4451   4375   4376      1
  4452   4375   4386      1
  4453   4376   4377      1
  4454   4376   4387      1
  4455   4377   4378      1
  4456   4377   4379      1
  4457   4379   4388      1
  4458   4379   4389      1
  4459   4390   4391      1
  4460   4390   4394      1
  4461   4390   4395      1
  4462   4391   4392      1
  4463   4392   4393      1
  4464   4392   4401      1
  4465   4393   4394      1
  4466   4393   4408      1
  4467   4394   4409      1
  4468   4395   4402      1
  4469   4395   4410      1
  4470   4396   4397      1
  4471   4396   4400      1
  4472   4396   4401      1
  4473   4397   4398      1
  4474   4398   4399      1
  4475   4399   4400      1
  4476   4399   4411      1
  4477   4400   4412      1
  4478   4401   4413      1
  4479   4402   4403      1
  4480   4402   4406      1
  4481   4403   4404      1
  4482   4403   4414      1
  4483   4404   4405      1
  4484   4404   4415      1
  4485   4405   4406      1
  4486   4405   4407      1
  4487   4407   4416      1
  4488   4407   4417      1
  4489   4418   4419      1
  4490   4418   4422      1
  4491   4418   4423      1
  4492   4419   4420      1
  4493   4420   4421      1
  4494   4420   4424      1
  4495   4421   4422      1
  4496   4421   4425      1
  4497   4422   4426      1
  4498   4423   4427      1
  4499   4424   4428      1
  4500   4429   4430      1
  4501   4429   4433      1
  4502   4429   4434      1
  4503   4431   4432      1
  4504   4431   4435      1
  4505   4432   4433      1
  4506   4432   4436      1
  4507   4433   4437      1
  4508   4434   4438      1
  4509   4435   4439      1
  4510   4440   4441      1
  4511   4440   4447      1
  4512   4440   4450      1
  4513   4440   4453      1
  4514   4441   4442      1
  4515   4441   4476      1
  4516   4442   4443      1
  4517   4442   4477      1
  4518   4443   4448      1
  4519   4443   4451      1
  4520   4444   4445      1
  4521   4444   4448      1
  4522   4444   4452      1
  4523   4445   4446      1
  4524   4446   4447      1
  4525   4446   4449      1
  4526   4447   4448      1
  4527   4447   4478      1
  4528   4448   4479      1
  4529   4449   4457      1
  4530   4449   4480      1
  4531   4450   4468      1
  4532   4450   4481      1
  4533   4450   4482      1
  4534   4451   4469      1
  4535   4451   4483      1
  4536   4451   4484      1
  4537   4452   4460      1
  4538   4452   4485      1
  4539   4453   4671      1
  4540   4454   4455      1
  4541   4455   4486      1
  4542   4456   4457      1
  4543   4456   4487      1
  4544   4457   4458      1
  4545   4459   4460      1
  4546   4459   4463      1
  4547   4460   4461      1
  4548   4461   4462      1
  4549   4461   4488      1
  4550   4462   4463      1
  4551   4462   4489      1
  4552   4464   4465      1
  4553   4465   4474      1
  4554   4466   4467      1
  4555   4466   4490      1
  4556   4467   4468      1
  4557   4467   4491      1
  4558   4469   4470      1
  4559   4469   4473      1
  4560   4470   4471      1
  4561   4470   4492      1
  4562   4471   4472      1
  4563   4471   4493      1
  4564   4472   4473      1
  4565   4472   4513      1
  4566   4472   4544      1
  4567   4474   4494      1
  4568   4474   4495      1
  4569   4475   4496      1
  4570   4475   4497      1
  4571   4498   4499      1
  4572   4498   4505      1
  4573   4498   4508      1
  4574   4498   4511      1
  4575   4499   4500      1
  4576   4499   4534      1
  4577   4500   4501      1
  4578   4500   4535      1
  4579   4501   4506      1
  4580   4501   4509      1
  4581   4501   4511      1
  4582   4502   4503      1
  4583   4502   4506      1
  4584   4502   4510      1
  4585   4503   4504      1
  4586   4504   4505      1
  4587   4504   4507      1
  4588   4505   4506      1
  4589   4505   4536      1
  4590   4506   4537      1
  4591   4507   4515      1
  4592   4507   4538      1
  4593   4508   4526      1
  4594   4508   4539      1
  4595   4508   4540      1
  4596   4509   4527      1
  4597   4509   4541      1
  4598   4509   4542      1
  4599   4510   4518      1
  4600   4510   4543      1
  4601   4512   4513      1
  4602   4512   4516      1
  4603   4513   4514      1
  4604   4514   4515      1
  4605   4514   4545      1
  4606   4517   4518      1
  4607   4517   4521      1
  4608   4518   4519      1
  4609   4519   4520      1
  4610   4519   4546      1
  4611   4520   4521      1
  4612   4520   4547      1
  4613   4521   4533      1
  4614   4522   4523      1
  4615   4522   4526      1
  4616   4523   4524      1
  4617   4523   4532      1
  4618   4524   4525      1
  4619   4524   4548      1
  4620   4525   4526      1
  4621   4525   4549      1
  4622   4527   4528      1
  4623   4527   4531      1
  4624   4528   4529      1
  4625   4528   4550      1
  4626   4529   4530      1
  4627   4529   4551      1
  4628   4532   4552      1
  4629   4532   4553      1
  4630   4533   4554      1
  4631   4533   4555      1
  4632   4556   4557      1
  4633   4556   4563      1
  4634   4556   4566      1
  4635   4557   4558      1
  4636   4557   4592      1
  4637   4558   4559      1
  4638   4558   4593      1
  4639   4559   4564      1
  4640   4559   4567      1
  4641   4559   4569      1
  4642   4560   4561      1
  4643   4560   4564      1
  4644   4560   4568      1
  4645   4562   4563      1
  4646   4562   4565      1
  4647   4562   4594      1
  4648   4563   4564      1
  4649   4564   4595      1
  4650   4565   4573      1
  4651   4565   4596      1
  4652   4566   4584      1
  4653   4566   4597      1
  4654   4566   4598      1
  4655   4567   4585      1
  4656   4567   4599      1
  4657   4567   4600      1
  4658   4568   4576      1
  4659   4568   4601      1
  4660   4569   4670      1
  4661   4570   4571      1
  4662   4570   4574      1
  4663   4570   4591      1
  4664   4571   4572      1
  4665   4571   4602      1
  4666   4572   4573      1
  4667   4572   4603      1
  4668   4573   4574      1
  4669   4575   4576      1
  4670   4575   4579      1
  4671   4576   4577      1
  4672   4577   4578      1
  4673   4577   4604      1
  4674   4578   4579      1
  4675   4578   4605      1
  4676   4580   4581      1
  4677   4580   4584      1
  4678   4581   4582      1
  4679   4582   4583      1
  4680   4582   4606      1
  4681   4583   4584      1
  4682   4583   4607      1
  4683   4585   4586      1
  4684   4585   4589      1
  4685   4585   4649      1
  4686   4586   4608      1
  4687   4586   4649      1
  4688   4587   4588      1
  4689   4587   4628      1
  4690   4587   4649      1
  4691   4588   4589      1
  4692   4588   4590      1
  4693   4590   4610      1
  4694   4590   4611      1
  4695   4591   4612      1
  4696   4591   4613      1
  4697   4609   4627      1
  4698   4614   4615      1
  4699   4614   4621      1
  4700   4614   4624      1
  4701   4614   4627      1
  4702   4615   4616      1
  4703   4615   4650      1
  4704   4616   4617      1
  4705   4616   4651      1
  4706   4617   4622      1
  4707   4617   4625      1
  4708   4618   4619      1
  4709   4618   4622      1
  4710   4618   4626      1
  4711   4619   4620      1
  4712   4620   4621      1
  4713   4620   4623      1
  4714   4621   4622      1
  4715   4621   4652      1
  4716   4622   4653      1
  4717   4623   4631      1
  4718   4623   4654      1
  4719   4624   4642      1
  4720   4624   4655      1
  4721   4624   4656      1
  4722   4625   4643      1
  4723   4625   4657      1
  4724   4626   4634      1
  4725   4626   4659      1
  4726   4628   4629      1
  4727   4628   4632      1
  4728   4629   4630      1
  4729   4629   4660      1
  4730   4630   4631      1
  4731   4630   4661      1
  4732   4631   4632      1
  4733   4633   4634      1
  4734   4633   4658      1
  4735   4634   4635      1
  4736   4635   4636      1
  4737   4635   4662      1
  4738   4636   4637      1
  4739   4636   4663      1
  4740   4638   4642      1
  4741   4639   4640      1
  4742   4640   4641      1
  4743   4640   4664      1
  4744   4641   4642      1
  4745   4641   4665      1
  4746   4643   4644      1
  4747   4643   4647      1
  4748   4644   4645      1
  4749   4644   4666      1
  4750   4645   4646      1
  4751   4645   4667      1
  4752   4646   4647      1
  4753   4646   4648      1
  4754   4648   4668      1
  4755   4648   4669      1
  4756   4672   4673     du
  4757   4673   4674     du
  4758   4674   4675     du
  4759   4675   4672     du
  4760   4676   4677     du
  4761   4677   4678     du
  4762   4678   4679     du
  4763   4679   4676     du
  4764   4675   4679     du
  4765   4676   4672     du
  4766   4674   4678     du
  4767   4677   4673     du
