@<TRIPOS>MOLECULE
LAMMPS data file via write_data, version 2 Aug 2023, timestep = 100, units = real > lmp2SYBYLmol2 v3.0 / 24 May 2023 w/remove_PBC_bonds=True
  5965 6478    0    0    0
SMALL
NO_CHARGES
****
Energy = 0

@<TRIPOS>ATOM
      1 H          -15.3649    19.7811   -17.9325 H       1      m1     0.0195
      2 H          -15.2560   -15.7117   -20.7576 H      19     m19     0.0193
      3 H          -13.8491   -17.7802   -19.0275 H       1      m1     0.0198
      4 H          -14.5063   -14.9434   -18.5055 H      19     m19     0.0178
      5 H          -13.8221   -15.4176    22.5559 H      19     m19     0.0154
      6 C          -13.6699   -18.7863   -19.3705 C       1      m1    -0.0209
      7 C          -12.5702   -18.6256   -20.2969 C       1      m1    -0.0101
      8 H          -12.0233   -17.6753   -20.1600 H       1      m1     0.0173
      9 C          -12.0233   -19.2882   -21.4345 C       1      m1    -0.0191
     10 H          -11.0903   -19.1252   -22.0843 H       1      m1     0.0156
     11 H           -9.9935   -16.6087   -22.1746 H      19     m19     0.0155
     12 C          -10.6132   -15.7287   -22.0998 C      19     m19    -0.0194
     13 H           -8.7887   -18.5207   -20.1890 H       2      m2     0.0182
     14 C           -8.1110   -19.1119   -20.8039 C       2      m2    -0.0210
     15 C           -7.7561   -18.7733   -18.4562 C       2      m2    -0.0163
     16 C           -7.1715   -18.6475   -21.6959 C       2      m2    -0.0120
     17 H           -7.5079   -17.5651   -21.8802 H       2      m2     0.0133
     18 H           -7.4047   -18.0505   -19.2516 H       2      m2     0.0169
     19 C           -6.4290   -19.4487   -22.6488 C       2      m2    -0.0208
     20 H           -3.9599   -16.6652   -19.2306 H      20     m20     0.0168
     21 H           -4.8137   -17.0905   -21.8404 H      20     m20     0.0155
     22 C           -4.7400   -16.0539   -19.8395 C      20     m20    -0.0178
     23 C           -4.3504   -16.1814   -21.3330 C      20     m20    -0.0186
     24 H           -3.6477   -19.7317   -19.0744 H       4      m4     0.0162
     25 H           -1.6287   -15.6363   -22.7060 H      20     m20     0.0225
     26 C            0.1047   -16.2800   -19.4739 C      13     m13    -0.0219
     27 H           -0.3896   -17.4947   -21.8574 H      13     m13     0.0180
     28 H            0.2870   -17.2040   -19.8348 H      13     m13     0.0162
     29 H            2.1116   -16.4716   -18.7470 H       1      m1     0.0173
     30 H            2.4126   -18.2406   -20.3716 H       1      m1     0.0142
     31 C            3.1790   -16.5575   -19.1531 C       1      m1    -0.0115
     32 C            3.2757   -17.5240   -20.2537 C       1      m1    -0.0180
     33 C            4.2095   -15.8988   -18.5638 C       1      m1    -0.0245
     34 H            4.1137   -19.0131   -22.4778 H       1      m1     0.0211
     35 C            4.3341   -17.5446   -21.2097 C       1      m1     0.0044
     36 C            4.2628   -17.9508   -22.5431 C       1      m1    -0.0359
     37 C            5.3950   -16.2148   -19.2302 C       1      m1     0.0046
     38 C            5.5293   -16.9969   -20.6944 C       1      m1    -0.0061
     39 H            6.4304   -18.4495   -18.5414 H      21     m21     0.0228
     40 C            6.4691   -16.6309   -18.3270 C       1      m1    -0.0204
     41 C            6.7601   -19.4978   -18.5206 C      21     m21    -0.0180
     42 C            6.6735   -16.4284   -21.2455 C       1      m1    -0.0076
     43 C            6.8036   -19.6899   -22.0835 C      21     m21    -0.0145
     44 C            7.8701   -16.5006   -18.8740 C       1      m1    -0.0187
     45 C            7.7718   -16.9681   -22.1830 C       1      m1    -0.0127
     46 C            7.5635   -19.3782   -21.0355 C      21     m21    -0.0152
     47 H            8.0656   -18.0267   -22.4697 H       1      m1     0.0160
     48 C            7.7912   -16.0865   -20.2123 C       1      m1     0.0008
     49 H            8.5810   -16.3582   -17.9481 H       1      m1     0.0195
     50 H            8.6146   -18.8895   -21.2381 H      21     m21     0.0181
     51 C            9.0097   -15.8804   -22.1517 C       1      m1    -0.0172
     52 C            9.1413   -15.5820   -20.7688 C       1      m1    -0.0045
     53 H           10.2626   -17.1916   -19.1703 H       6      m6     0.0194
     54 C           10.6031   -19.8370   -21.7573 C       1      m1    -0.0258
     55 H           11.6134   -19.5552   -21.6200 H       1      m1     0.0230
     56 H           12.8302   -16.3106   -21.1925 H       6      m6     0.0113
     57 C           13.0025   -17.2274   -20.3184 C       6      m6    -0.0176
     58 C           13.1379   -17.2833   -18.9503 C       6      m6    -0.0003
     59 C           13.5773   -18.8358   -18.4795 C       6      m6    -0.0246
     60 H           13.3763   -17.1617   -22.6199 H       6      m6     0.0159
     61 C           13.8550   -18.1288   -21.1169 C       6      m6    -0.0033
     62 C           13.9638   -17.9803    22.7156 C       6      m6    -0.0257
     63 C           14.5641   -19.5051   -19.0242 C       6      m6     0.0037
     64 C           14.5307   -19.1053   -20.5351 C       6      m6     0.0001
     65 H           15.2790   -16.4772   -19.6943 H       1      m1     0.0199
     66 C           15.5443   -19.5941   -21.5048 C       6      m6    -0.0083
     67 C           15.8120   -15.6655   -19.3499 C       1      m1    -0.0194
     68 H           15.7131   -15.8992   -21.6611 H       1      m1     0.0128
     69 C           16.8569   -15.9597   -21.3795 C       1      m1    -0.0300
     70 H           16.8664   -17.1652   -21.3629 H       1      m1     0.0190
     71 C           18.4133   -13.8182   -21.7096 C       1      m1    -0.0012
     72 C          -18.1820   -13.7463   -20.4417 C       1      m1    -0.0020
     73 C          -17.3758   -13.4244   -22.6258 C       1      m1     0.0012
     74 C          -17.1611   -13.0420   -18.5295 C       1      m1    -0.0131
     75 H          -16.0032   -12.8308   -18.4599 H       1      m1     0.0148
     76 C          -17.1129   -13.5914   -19.9345 C       1      m1     0.0023
     77 C          -16.0977   -13.0535   -22.0302 C       1      m1    -0.0136
     78 C          -15.9793   -12.9338   -20.6365 C       1      m1    -0.0193
     79 H          -15.0458   -12.6723   -22.2832 H       1      m1     0.0138
     80 H          -14.9785   -12.8883   -20.0124 H       1      m1     0.0150
     81 H          -14.2766   -11.2791   -22.2377 H      11     m11     0.0137
     82 C          -14.1835   -15.5401   -20.5098 C      19     m19    -0.0129
     83 C          -13.7723   -15.1353   -19.2870 C      19     m19    -0.0212
     84 C          -13.3293   -15.3194   -21.7235 C      19     m19    -0.0164
     85 C          -12.3969   -14.5207   -19.1514 C      19     m19     0.0032
     86 H          -12.4002   -12.6101    22.4979 H      11     m11     0.0166
     87 C          -11.8854   -15.3643   -21.3734 C      19     m19     0.0022
     88 C          -11.5607   -14.4940   -20.2247 C      19     m19    -0.0027
     89 C          -11.2260   -12.6769   -18.2236 C      19     m19    -0.0002
     90 C          -10.5175   -13.5612   -20.4233 C      19     m19    -0.0041
     91 C          -10.2889   -12.5506   -19.4320 C      19     m19    -0.0000
     92 C          -10.1609   -14.6247    22.5183 C      19     m19    -0.0186
     93 C          -10.1032   -13.5439   -21.7951 C      19     m19     0.0020
     94 C           -9.5693   -12.2177   -21.8691 C      19     m19    -0.0171
     95 C           -9.2231   -11.4473   -19.4871 C      19     m19    -0.0142
     96 C           -9.0972   -11.1595   -20.8528 C      19     m19    -0.0142
     97 H           -8.5750   -13.6133   -20.0634 H      20     m20     0.0239
     98 C           -7.7790   -13.0809   -19.5302 C      20     m20    -0.0166
     99 H           -7.7122   -11.4740   -22.2386 H      20     m20     0.0153
    100 C           -6.9662   -13.3436   -18.3802 C      20     m20    -0.0147
    101 C           -6.8433   -12.2139   -21.9132 C      20     m20    -0.0168
    102 C           -6.7084   -13.0091   -20.7764 C      20     m20     0.0034
    103 C           -5.8455   -14.2245   -18.2844 C      20     m20    -0.0018
    104 C           -5.5677   -13.9305   -20.7395 C      20     m20    -0.0030
    105 C           -5.3525   -14.7937   -19.7120 C      20     m20     0.0029
    106 C           -4.7534   -14.2425   -21.8652 C      20     m20    -0.0027
    107 C           -3.6058   -15.0891   -21.8722 C      20     m20     0.0036
    108 H           -3.6176   -12.3870   -21.6465 H       2      m2     0.0236
    109 C           -3.1387   -11.4958   -21.7045 C       2      m2    -0.0167
    110 C           -2.3961   -14.7627    22.7068 C      20     m20    -0.0188
    111 H           -1.2910   -11.6651   -20.5999 H       2      m2     0.0184
    112 H           -1.0538   -13.0762   -21.3475 H      13     m13     0.0191
    113 C           -0.0509   -13.4962   -21.8640 C      13     m13    -0.0165
    114 C            0.2924   -15.0763   -20.1083 C      13     m13     0.0006
    115 C            0.4940   -14.8621   -21.6231 C      13     m13    -0.0018
    116 C            1.0503   -13.8691   -19.4939 C      13     m13     0.0024
    117 C            2.2816   -13.3289   -19.6147 C      13     m13    -0.0192
    118 C            2.4967   -12.1672   -18.7096 C      13     m13    -0.0175
    119 H            2.9514   -13.3073   -20.4920 H      13     m13     0.0168
    120 H            3.5968   -11.8015   -19.0655 H      13     m13     0.0113
    121 H            4.4137   -15.2798   -22.1114 H       1      m1     0.0185
    122 H            5.2932   -11.3634   -18.7395 H       5      m5     0.0131
    123 H            7.8592   -14.3715   -19.1329 H       1      m1     0.0192
    124 C            8.8769   -13.8047   -19.1621 C       1      m1    -0.0118
    125 C            9.1102   -12.6334   -18.4856 C       1      m1    -0.0183
    126 C            9.6667   -14.1876   -20.3300 C       1      m1    -0.0022
    127 C           10.4688   -12.0602   -18.6759 C       1      m1     0.0070
    128 C           10.8944   -13.4714   -20.5973 C       1      m1    -0.0002
    129 C           11.3454   -12.4440   -19.8335 C       1      m1     0.0007
    130 C           12.0818   -13.9126   -21.5282 C       1      m1    -0.0144
    131 C           12.6631   -12.0057   -19.9715 C       1      m1     0.0003
    132 H           12.3444   -15.0618   -21.6914 H       1      m1     0.0144
    133 C           13.1426   -13.0217   -20.8757 C       1      m1     0.0070
    134 C           13.2076   -11.4800   -18.8107 C       1      m1     0.0031
    135 C           14.4456   -13.3170   -21.0563 C       1      m1    -0.0235
    136 C           14.5121   -11.9590   -18.8362 C       1      m1    -0.0175
    137 H           14.8544   -14.2334   -21.3995 H       1      m1     0.0166
    138 C           15.0805   -12.5069   -19.9191 C       1      m1    -0.0089
    139 H           14.6994   -11.7090   -17.7141 H       1      m1     0.0154
    140 H           16.1952   -12.5629   -20.1375 H       1      m1     0.0174
    141 H           16.3905   -14.2756   -22.0655 H       1      m1     0.0158
    142 C           16.8916   -15.4508   -20.0039 C       1      m1     0.0050
    143 C           17.3050   -13.8793   -18.1423 C       1      m1    -0.0005
    144 C           17.3305   -14.7100   -22.0998 C       1      m1    -0.0105
    145 C           17.6685   -14.4296   -19.5422 C       1      m1    -0.0018
    146 C          -17.6737    -7.1802   -20.4135 C      22     m22    -0.0035
    147 C          -17.7070    -8.3289   -22.6665 C      22     m22    -0.0167
    148 C          -17.5404    -7.0498   -21.9769 C      22     m22    -0.0009
    149 H          -13.3205    -9.0151   -21.5490 H      11     m11     0.0167
    150 H          -13.7213    -7.5597   -18.4488 H       2      m2     0.0131
    151 C          -13.3951   -10.8114   -22.6900 C      11     m11    -0.0143
    152 C          -13.2623    -9.2754    22.6801 C      11     m11    -0.0338
    153 C          -12.8918    -6.6277   -18.5774 C       2      m2    -0.0153
    154 H           -8.8400   -10.9394   -18.5272 H      19     m19     0.0188
    155 H           -8.9162   -10.0696   -21.0454 H      19     m19     0.0176
    156 H           -5.9204    -6.5652   -20.9815 H       2      m2     0.0174
    157 H           -5.5782    -8.5100   -22.3153 H       2      m2     0.0162
    158 C           -5.1122    -7.2213   -20.7497 C       2      m2    -0.0182
    159 C           -4.9939    -8.4732   -21.4108 C       2      m2    -0.0196
    160 H           -4.6304   -10.7383   -22.5364 H       2      m2     0.0186
    161 C           -4.4460    -7.1062   -19.4626 C       2      m2     0.0035
    162 C           -4.0756   -10.3196   -21.7209 C       2      m2    -0.0186
    163 C           -3.8697    -9.1187   -21.1261 C       2      m2     0.0095
    164 C           -3.0042    -7.6003   -19.6084 C       2      m2     0.0021
    165 C           -3.1535    -8.8404   -20.0220 C       2      m2    -0.0045
    166 C           -1.9324   -10.9539   -21.1290 C       2      m2    -0.0138
    167 C           -1.9769    -9.7639   -20.1089 C       2      m2     0.0007
    168 C           -0.8487    -9.5563   -19.3667 C       2      m2    -0.0059
    169 H            0.5847   -10.8082   -22.1056 H      13     m13     0.0173
    170 C            0.5168    -9.2103   -19.3700 C       2      m2    -0.0023
    171 C            1.3871    -8.1279   -19.2897 C       2      m2    -0.0236
    172 H            2.2175    -7.7407   -19.7625 H       2      m2     0.0191
    173 H            1.8715    -8.8857   -22.2532 H      10     m10     0.0151
    174 H            3.6155   -10.5245   -21.3431 H      10     m10     0.0167
    175 C            3.7266    -9.5469   -21.6805 C      10     m10    -0.0269
    176 H            3.8205    -7.3548   -17.8710 H       2      m2     0.0169
    177 H            3.5877    -6.9517   -21.7294 H      23     m23     0.0218
    178 H            4.6837    -7.7197   -19.8031 H      23     m23     0.0172
    179 C            5.0119    -9.3185   -22.5464 C      10     m10     0.0064
    180 C            5.2581    -7.0100   -20.2464 C      23     m23    -0.0176
    181 H            6.6964    -9.9246   -21.0589 H      10     m10     0.0188
    182 C            6.3504    -9.5573   -21.9648 C      10     m10    -0.0247
    183 C            7.5163    -9.2788   -22.5639 C      10     m10    -0.0021
    184 C            7.5389    -6.5964   -19.0716 C      23     m23    -0.0193
    185 H            7.7680    -7.7058   -18.9771 H      23     m23     0.0147
    186 H            8.1178    -7.6533   -20.9500 H      10     m10     0.0187
    187 C            8.5881    -9.7165   -21.5940 C      10     m10    -0.0063
    188 C            8.8413    -8.5871   -20.8410 C      10     m10    -0.0148
    189 H            9.5415    -9.4225   -18.9985 H      10     m10     0.0201
    190 H           10.0881    -7.7661   -18.8324 H      10     m10     0.0149
    191 C            9.8679    -8.5490   -19.5722 C      10     m10    -0.0371
    192 C            9.8404   -10.4926   -22.0329 C      10     m10    -0.0005
    193 C           10.9214    -9.8484   -21.5479 C      10     m10     0.0002
    194 C           10.9919    -8.8517   -20.4533 C      10     m10     0.0085
    195 C           11.9785    -9.6901   -22.6045 C      10     m10    -0.0008
    196 H           12.2591    -7.4505   -19.3798 H      10     m10     0.0123
    197 C           12.2612    -8.4653   -19.8701 C      10     m10    -0.0199
    198 C           13.4270    -8.9069   -20.6917 C      10     m10    -0.0173
    199 C           13.3791    -9.3122   -22.1702 C      10     m10     0.0045
    200 H           14.2897    -9.0241   -20.0220 H      10     m10     0.0178
    201 H           15.9314    -6.3291   -18.2822 H      22     m22     0.0125
    202 C           16.7083    -6.7675   -18.9779 C      22     m22    -0.0182
    203 H           17.4469   -10.4510   -20.6968 H      22     m22     0.0172
    204 H           16.9594    -8.6023   -17.9757 H      22     m22     0.0197
    205 C           17.2909    -7.9500   -18.8464 C      22     m22    -0.0158
    206 C           17.8167    -9.3960   -20.8279 C      22     m22    -0.0154
    207 C           18.3646    -8.1661   -20.0101 C      22     m22     0.0051
    208 C           18.1963    -9.5213   -22.2210 C      22     m22    -0.0189
    209 C          -18.3291    -3.4388   -18.5713 C      22     m22    -0.0137
    210 C          -17.8193    -5.8343   -19.8808 C      22     m22    -0.0012
    211 C          -17.3197    -3.5490   -19.7011 C      22     m22    -0.0152
    212 C          -16.8641    -5.8087   -22.5424 C      22     m22    -0.0032
    213 C          -17.0701    -4.8069   -20.3886 C      22     m22     0.0033
    214 H          -16.5974    -2.7021   -19.5355 H      22     m22     0.0179
    215 C          -16.2748    -5.0840   -21.5996 C      22     m22    -0.0191
    216 H          -15.5947    -4.0464   -21.6731 H      22     m22     0.0186
    217 H          -13.9082    -5.5472   -20.1027 H       2      m2     0.0157
    218 C          -12.8705    -5.7278   -19.6569 C       2      m2    -0.0119
    219 H          -11.9947    -3.9946   -20.8089 H       2      m2     0.0149
    220 C          -11.8853    -4.8761   -19.9503 C       2      m2    -0.0172
    221 C          -10.5686    -5.1499   -19.7334 C       2      m2     0.0078
    222 C          -10.4190    -6.2342   -18.7537 C       2      m2    -0.0013
    223 H           -9.5701    -3.7511   -21.1437 H       2      m2     0.0181
    224 C           -9.6101    -4.4553   -20.5092 C       2      m2    -0.0251
    225 C           -9.2255    -6.5593   -18.3329 C       2      m2    -0.0007
    226 C           -8.2874    -4.9356   -20.2220 C       2      m2    -0.0174
    227 C           -8.0725    -5.8571   -18.9514 C       2      m2     0.0009
    228 H           -7.4557    -4.5918   -20.8152 H       2      m2     0.0145
    229 C           -6.7190    -6.2259   -18.6024 C       2      m2    -0.0017
    230 C           -5.2363    -5.9892   -18.9429 C       2      m2    -0.0039
    231 C           -2.6159    -5.6706   -18.3595 C       2      m2    -0.0158
    232 C           -2.1295    -4.6428   -22.7099 C       2      m2    -0.0282
    233 C           -2.0103    -3.3562   -22.4304 C       2      m2     0.0050
    234 C           -2.0167    -6.7329   -19.0771 C       2      m2    -0.0178
    235 H           -2.5157    -5.4220   -21.7717 H       2      m2     0.0168
    236 C           -1.5931    -2.6925   -21.1339 C       2      m2    -0.0058
    237 H           -1.3471    -4.9476   -19.9944 H       2      m2     0.0176
    238 H           -0.8649    -6.9497   -19.3026 H       2      m2     0.0174
    239 C           -0.6243    -4.1541   -19.8700 C       2      m2    -0.0210
    240 C           -0.3550    -2.7268   -20.2391 C       2      m2     0.0051
    241 H            0.2719    -5.1214    22.4426 H       2      m2     0.0135
    242 C            0.6988    -4.7440   -19.5654 C       2      m2    -0.0175
    243 H            0.6147    -5.8204   -19.3193 H       2      m2     0.0194
    244 H            1.7736    -2.9790   -20.9700 H       2      m2     0.0214
    245 C            1.7205    -2.3384   -19.0400 C       2      m2     0.0040
    246 C            1.7838    -3.7977   -19.0729 C       2      m2    -0.0016
    247 C            4.3120    -6.4518   -21.2606 C      23     m23    -0.0189
    248 C            4.5378    -5.2487   -21.9392 C      23     m23     0.0055
    249 C            5.5805    -3.0256   -21.5611 C      23     m23     0.0013
    250 C            5.4373    -4.3325   -21.1139 C      23     m23    -0.0003
    251 C            6.1153    -4.6545   -19.8993 C      23     m23     0.0013
    252 C            6.3512    -6.2832   -19.6357 C      23     m23     0.0046
    253 C            6.5307    -3.7885   -18.7945 C      23     m23     0.0005
    254 C            6.5536    -2.4456   -19.3541 C      23     m23     0.0012
    255 C            7.7194    -4.4297   -18.3375 C      23     m23    -0.0134
    256 C            8.4004    -5.5927   -18.6537 C      23     m23    -0.0128
    257 H            8.6981    -3.0590   -21.7306 H      24     m24     0.0159
    258 C            9.8271    -2.9944   -21.7438 C      24     m24    -0.0077
    259 C           10.6773    -4.0845   -21.5971 C      24     m24    -0.0198
    260 H           10.6368    -5.0030   -21.1052 H      24     m24     0.0160
    261 C           11.8776    -4.2844   -22.3218 C      24     m24     0.0022
    262 H           12.3584    -6.1818   -21.4470 H      24     m24     0.0153
    263 C           12.9683    -5.2567   -21.8803 C      24     m24    -0.0158
    264 H           15.7267    -2.7939   -22.0375 H      16     m16     0.0207
    265 C           17.5502    -4.4018   -18.5106 C      22     m22    -0.0181
    266 C           17.7617    -5.7216   -19.2233 C      22     m22     0.0036
    267 H           18.2695    -2.7055   -17.8865 H      22     m22     0.0182
    268 C          -18.2545    -1.3628   -22.5510 C      16     m16    -0.0159
    269 C          -18.2155    -0.2869   -21.5096 C      16     m16    -0.0007
    270 C          -17.8501     1.3349   -19.3713 C      16     m16     0.0054
    271 C          -17.2637     1.9878   -20.4818 C      16     m16    -0.0253
    272 C          -17.3361     0.8658   -21.4292 C      16     m16    -0.0018
    273 C          -15.8881     0.5266   -21.9717 C      16     m16    -0.0012
    274 H          -15.9318    -0.0575   -18.1340 H       9      m9     0.0189
    275 H          -15.3272     0.1414   -19.9226 H      16     m16     0.0192
    276 C          -15.0440    -0.0376   -21.0162 C      16     m16    -0.0219
    277 C          -14.1211    -0.8421   -21.6469 C      16     m16     0.0082
    278 H          -13.8956    -2.3122   -19.8129 H      16     m16     0.0190
    279 C          -13.5659    -2.0369   -20.8357 C      16     m16    -0.0204
    280 C          -13.1816     1.9346   -18.8412 C       9      m9    -0.0014
    281 H          -11.7303     0.0786   -17.5569 H       9      m9     0.0157
    282 C          -12.1404    -1.9566   -20.9979 C      16     m16    -0.0099
    283 C          -12.0451     1.0852   -19.4653 C       9      m9    -0.0060
    284 C          -11.8199     1.9206   -21.7737 C       9      m9    -0.0223
    285 H          -11.3945    -2.4756   -20.2885 H      16     m16     0.0165
    286 C          -11.6012    -1.5021   -22.3779 C      16     m16    -0.0310
    287 C          -11.3143     0.1604   -18.7247 C       9      m9    -0.0094
    288 H          -11.0629    -0.5526   -22.5748 H      16     m16     0.0235
    289 C          -11.2238     1.2002   -20.7004 C       9      m9     0.0012
    290 C          -10.0010    -0.1375   -18.5762 C       9      m9    -0.0243
    291 C           -9.9166     0.4830   -20.8922 C       9      m9    -0.0040
    292 C           -9.2227     0.3727   -22.1765 C       9      m9    -0.0046
    293 C           -9.2456    -0.1203   -19.7257 C       9      m9     0.0070
    294 C           -8.2136    -1.4456   -19.8602 C       9      m9    -0.0204
    295 H           -8.1271    -2.2392   -19.2076 H       9      m9     0.0216
    296 C           -7.9588    -0.4340   -21.9793 C       9      m9     0.0029
    297 C           -7.3477    -1.0853   -20.8750 C       9      m9    -0.0146
    298 H           -6.4376    -0.8169    21.7529 H       9      m9     0.0168
    299 H           -6.3497    -1.7023   -21.0125 H       9      m9     0.0170
    300 C           -5.5451     1.0677   -18.8529 C       2      m2     0.0044
    301 C           -5.8508    -0.1170   -18.2795 C       2      m2    -0.0001
    302 H           -5.2307     1.5582   -21.1117 H       2      m2     0.0191
    303 C           -5.0078    -1.2793   -18.9800 C       2      m2     0.0008
    304 C           -4.8696     1.2340   -20.2010 C       2      m2    -0.0192
    305 C           -3.7412     0.5524   -20.6127 C       2      m2     0.0065
    306 C           -3.9928    -0.7800   -19.9821 C       2      m2    -0.0196
    307 H           -3.4398    -1.6965   -19.8396 H       2      m2     0.0203
    308 C           -2.7903     0.8943   -21.8918 C       2      m2    -0.0183
    309 H           -2.0625     1.6933   -21.8705 H       2      m2     0.0182
    310 C           -2.0716    -0.4480   -22.4482 C       2      m2     0.0010
    311 C           -1.4829    -1.3891   -21.5508 C       2      m2    -0.0163
    312 H           -0.9405    -0.7137   -20.7222 H       2      m2     0.0173
    313 C            0.6036     1.4076   -18.7837 C       7      m7    -0.0132
    314 H            1.4760     1.2622   -19.3308 H       7      m7     0.0166
    315 C            1.0330    -2.2094   -20.5257 C       2      m2    -0.0333
    316 H            1.0193    -0.9922   -20.7299 H       2      m2     0.0164
    317 C            2.1732    -1.3464   -18.2276 C       2      m2    -0.0194
    318 H            1.9541    -0.2246   -18.2219 H       2      m2     0.0157
    319 C            3.4305     1.5261   -21.9280 C       1      m1    -0.0132
    320 H            3.4235     0.5367   -22.5054 H       1      m1     0.0175
    321 C            4.3595     1.8964   -20.9225 C       1      m1    -0.0165
    322 H            5.4182     1.3583   -21.0237 H       1      m1     0.0156
    323 C            6.1298    -2.0319   -20.6882 C      23     m23    -0.0238
    324 H            6.1532    -0.9738   -21.0586 H      23     m23     0.0152
    325 H            7.2243     0.2916   -21.9511 H      23     m23     0.0140
    326 C            7.5713    -1.9172   -18.5057 C      23     m23    -0.0006
    327 H            7.8125    -1.2569   -20.8594 H      23     m23     0.0186
    328 C            7.8149    -0.4552   -19.0293 C      23     m23     0.0003
    329 C            8.1382    -0.2935   -20.4474 C      23     m23    -0.0174
    330 C            8.2208     0.7037   -21.4917 C      23     m23    -0.0171
    331 C            8.8831     0.3234   -18.4911 C      23     m23    -0.0006
    332 C            8.9103     1.7337   -20.6930 C      23     m23    -0.0172
    333 C            9.0397     1.5926   -19.3342 C      23     m23     0.0019
    334 H           10.5877    -0.6565   -22.2190 H      24     m24     0.0167
    335 C           10.5300    -1.7646   -22.2014 C      24     m24    -0.0164
    336 H           13.3918    -0.2105   -21.6501 H      24     m24     0.0172
    337 C           13.9980     0.7631   -21.9725 C      24     m24    -0.0189
    338 H           13.6530     1.5954   -20.1914 H      24     m24     0.0133
    339 H           14.4087    -1.3730   -19.5253 H      16     m16     0.0142
    340 C           14.6533     1.5185   -20.8443 C      24     m24    -0.0094
    341 C           15.4501    -0.9647   -19.8294 C      16     m16    -0.0159
    342 C           15.6058    -0.5122   -18.4958 C      16     m16    -0.0216
    343 C           15.9590     2.0866   -21.0492 C      24     m24    -0.0155
    344 C           16.3872    -0.7992   -20.7859 C      16     m16     0.0048
    345 C           16.5200    -1.9351   -21.9834 C      16     m16    -0.0123
    346 C           16.9459     0.2294   -18.3112 C      16     m16     0.0080
    347 C           17.6449    -0.4038   -20.4366 C      16     m16    -0.0008
    348 C           17.9974     0.3559   -19.3922 C      16     m16    -0.0066
    349 C          -18.3113     5.6614   -18.6828 C       1      m1    -0.0175
    350 H          -16.5015     2.7057   -20.4695 H      16     m16     0.0194
    351 C          -15.3219     4.5368   -22.1015 C       1      m1    -0.0220
    352 H          -14.2667     2.8766   -22.4383 H       1      m1     0.0154
    353 C          -14.8483     6.5549   -19.0878 C       9      m9    -0.0147
    354 H          -15.1828     4.5328   -21.0139 H       1      m1     0.0178
    355 C          -13.4778     4.5449   -18.7183 C       9      m9     0.0027
    356 C          -13.6938     5.8714   -19.5015 C       9      m9    -0.0208
    357 H          -13.1036     6.1704   -20.4416 H       9      m9     0.0130
    358 C          -12.8977     3.2776   -19.0622 C       9      m9    -0.0191
    359 H          -12.8747     2.1210   -21.7387 H       9      m9     0.0194
    360 C          -12.1051     4.9298   -22.6139 C       9      m9    -0.0206
    361 H          -11.8198     3.1636   -19.5662 H       9      m9     0.0163
    362 H          -11.8803     4.6472   -21.6032 H       9      m9     0.0159
    363 H           -9.8737     5.0529   -18.0782 H       2      m2     0.0121
    364 H          -10.4246     2.5610   -18.5386 H       2      m2     0.0183
    365 H          -10.0060     6.3967   -20.4201 H       2      m2     0.0151
    366 H           -7.9040     4.8948   -18.6172 H       2      m2     0.0174
    367 C           -6.9067     4.8671   -18.1115 C       2      m2    -0.0346
    368 H           -6.8738     2.9666   -21.1413 H       2      m2     0.0152
    369 C           -6.7108     3.5008   -18.8485 C       2      m2     0.0026
    370 C           -6.5367     3.7439   -20.2608 C       2      m2    -0.0193
    371 H           -6.1668     4.3550   -22.3726 H       2      m2     0.0178
    372 C           -6.1941     2.3865   -18.1267 C       2      m2     0.0031
    373 C           -5.9793     6.0082   -18.6548 C       2      m2     0.0027
    374 C           -5.6359     4.9203   -21.8685 C       2      m2    -0.0240
    375 C           -5.2559     4.4730   -20.5183 C       2      m2     0.0053
    376 C           -5.2174     5.7056   -19.7493 C       2      m2    -0.0022
    377 C           -4.4684     5.8309   -22.4503 C       2      m2    -0.0129
    378 C           -0.1257     2.7426   -18.7899 C       7      m7    -0.0169
    379 H            0.2722     3.7798   -18.9377 H       7      m7     0.0192
    380 C            1.9812     6.0140   -22.0618 C       1      m1    -0.0061
    381 C            2.2057     4.8049   -22.4645 C       1      m1    -0.0182
    382 C            2.0086     6.1808   -20.6631 C       1      m1     0.0058
    383 C            2.2630     2.3613   -22.3576 C       1      m1    -0.0166
    384 C            2.1446     3.6723   -21.6544 C       1      m1     0.0026
    385 C            2.3856     5.0184   -19.7659 C       1      m1    -0.0034
    386 C            2.9024     3.8015   -20.3641 C       1      m1    -0.0018
    387 C            3.1631     5.2686   -18.3997 C       1      m1     0.0026
    388 C            3.8425     2.9353   -19.7305 C       1      m1     0.0015
    389 C            4.1577     6.3119   -22.6052 C       1      m1    -0.0192
    390 H            4.6339     5.4699   -21.9886 H       1      m1     0.0207
    391 C            4.4679     3.2137   -18.4941 C       1      m1    -0.0183
    392 H            4.9161     2.2773   -17.9680 H       1      m1     0.0157
    393 H            5.7039     6.4851   -20.6218 H       1      m1     0.0197
    394 H            6.6024     4.1782   -18.4234 H      25     m25     0.0153
    395 C            7.1756     5.0712   -18.7160 C      25     m25    -0.0139
    396 C            8.3805     5.1879   -19.6084 C      25     m25    -0.0194
    397 C            8.8662     6.5346   -19.9629 C      25     m25    -0.0012
    398 H            8.5621     4.1716   -20.1032 H      25     m25     0.0137
    399 H            9.4950     2.5102   -21.3532 H      23     m23     0.0119
    400 C           10.1112     2.6563   -18.8007 C      23     m23    -0.0222
    401 C           10.2806     6.5977   -20.4930 C      25     m25    -0.0201
    402 H            9.6881     3.5772   -18.9298 H      23     m23     0.0174
    403 H           10.2361     5.7274   -21.1826 H      25     m25     0.0169
    404 H           11.5171     3.0864    22.4172 H       1      m1     0.0146
    405 C           13.3003     4.5750   -22.5343 C       1      m1    -0.0158
    406 H           13.7068     1.9754   -18.4944 H       1      m1     0.0137
    407 H           13.8350     5.0712   -19.8859 H       1      m1     0.0211
    408 H           14.0630     3.8510   -22.1919 H       1      m1     0.0227
    409 C           14.5603     2.8081   -18.2243 C       1      m1    -0.0165
    410 C           14.7923     5.2997   -19.7395 C       1      m1    -0.0231
    411 C           14.9403     6.3504   -22.2102 C       1      m1    -0.0050
    412 C           15.1655     4.1249   -18.9998 C       1      m1     0.0019
    413 C           15.4939     5.8128   -20.8400 C       1      m1     0.0040
    414 C           16.3168     2.7077   -22.3553 C      24     m24     0.0032
    415 H           16.8900     2.1352   -20.3928 H      24     m24     0.0224
    416 C           16.4944     4.2053   -18.7675 C       1      m1    -0.0009
    417 C           17.0263     5.6648   -20.5132 C       1      m1    -0.0300
    418 H           17.7518     5.1161   -21.4845 H       1      m1     0.0164
    419 H           17.4946     6.6508   -20.2767 H       1      m1     0.0185
    420 C           17.3428     5.1266   -19.2631 C       1      m1     0.0045
    421 C           17.4883     3.3955   -22.5242 C      24     m24    -0.0167
    422 H           17.9502     3.5800   -21.4463 H      24     m24     0.0164
    423 H          -17.8129     6.6381   -19.0876 H       1      m1     0.0142
    424 C          -17.4163    10.2172   -19.5647 C       1      m1    -0.0199
    425 C          -16.9110    10.5666   -20.8337 C       1      m1     0.0034
    426 H          -16.6318     9.9424   -18.7759 H       1      m1     0.0166
    427 C          -16.4291     6.8093   -21.9933 C       1      m1    -0.0223
    428 C          -16.2970     9.0972   -22.6862 C       1      m1     0.0003
    429 H          -14.8722     7.5861   -19.9454 H       9      m9     0.0093
    430 C          -15.7153     9.8923   -21.4745 C       1      m1    -0.0359
    431 H          -16.2401     7.2221   -20.8807 H       1      m1     0.0145
    432 H          -15.3839     9.3226   -20.5818 H       1      m1     0.0153
    433 H          -15.0234    10.7979   -21.6535 H       1      m1     0.0162
    434 C          -14.3067    10.4128   -18.1550 C       2      m2    -0.0163
    435 H          -14.1614     9.8310   -19.1671 H       2      m2     0.0131
    436 H          -12.7694     6.6972   -21.9264 H       9      m9     0.0128
    437 C          -10.4971    10.7212   -18.7265 C       2      m2    -0.0024
    438 C          -10.0700     9.6630   -19.5488 C       2      m2    -0.0003
    439 C           -9.5718     9.6051   -21.1836 C       2      m2     0.0011
    440 C           -9.5265     7.2432   -20.7155 C       2      m2    -0.0180
    441 C           -9.5814    11.0447   -21.8039 C       2      m2    -0.0174
    442 C           -9.4483     8.2029   -21.7466 C       2      m2    -0.0192
    443 C           -9.5079     8.8131   -18.5639 C       2      m2     0.0008
    444 H           -9.6889     7.8089   -22.6648 H       2      m2     0.0216
    445 C           -9.0265     7.8850   -19.4937 C       2      m2    -0.0150
    446 H           -8.3489     7.0066   -19.1401 H       2      m2     0.0164
    447 C           -5.7674    10.7569   -18.6910 C       2      m2    -0.0215
    448 H           -5.9849    10.5263   -19.6976 H       2      m2     0.0222
    449 C           -5.4995     8.4397   -18.5212 C       2      m2     0.0015
    450 C           -4.5321     8.2890   -19.6368 C       2      m2    -0.0224
    451 C           -4.6114     7.0854   -20.3728 C       2      m2     0.0048
    452 C           -4.4330     7.0598   -21.7240 C       2      m2    -0.0196
    453 H           -3.6272     8.9174   -19.7261 H       2      m2     0.0179
    454 H           -3.9646     7.8812   -22.1294 H       2      m2     0.0198
    455 C           -2.6238    10.1312   -21.4459 C       4      m4    -0.0172
    456 H           -2.3216     9.3631   -20.5269 H       4      m4     0.0122
    457 H           -0.9371    10.1069   -18.7890 H       4      m4     0.0175
    458 H            0.8785     8.1305   -20.4396 H       1      m1     0.0207
    459 H            1.4833     8.4340   -18.1616 H       1      m1     0.0209
    460 C            1.7377     7.4012   -18.4741 C       1      m1    -0.0114
    461 C            1.2049     7.3211   -19.9985 C       1      m1    -0.0233
    462 C            2.6552    10.6567   -20.0915 C      25     m25    -0.0006
    463 C            2.9724     7.0215   -22.5016 C       1      m1     0.0092
    464 C            2.8513    10.1201   -18.8671 C      25     m25    -0.0007
    465 C            4.2364     9.6722   -18.6211 C      25     m25     0.0035
    466 C            4.8839    10.7764   -20.8124 C      25     m25    -0.0166
    467 C            5.1434     9.9941   -19.6823 C      25     m25    -0.0118
    468 H            5.6595    11.5003   -21.3933 H      25     m25     0.0137
    469 C            6.1882     7.1317   -21.5230 C       1      m1    -0.0112
    470 H            6.2696     9.7306   -19.9587 H      25     m25     0.0203
    471 C            6.9960     7.4411   -18.2136 C      25     m25     0.0019
    472 C            7.2569     7.9560   -21.4295 C       1      m1    -0.0242
    473 C            7.4819     8.7003   -22.5566 C       1      m1     0.0093
    474 H            8.0110     7.7952   -20.8694 H       1      m1     0.0260
    475 C            8.1843     7.5645   -19.0663 C      25     m25    -0.0055
    476 C            9.0882     8.5547   -18.4903 C      25     m25    -0.0014
    477 H            9.4185     9.7550   -22.0380 H       1      m1     0.0186
    478 C           10.6548     8.4311   -18.7761 C      25     m25     0.0042
    479 C           11.1873     7.4592   -19.6991 C      25     m25    -0.0155
    480 C           11.5712     9.8781   -18.7969 C      25     m25    -0.0213
    481 H           11.8445     7.8024   -20.5504 H      25     m25     0.0185
    482 H           12.6337    10.1353   -19.0753 H      25     m25     0.0174
    483 H           15.5113     8.4149   -22.6653 H       1      m1     0.0170
    484 H          -18.2392    14.4747   -18.5256 H       1      m1     0.0167
    485 H          -18.0911    14.7155   -21.3428 H       1      m1     0.0158
    486 C          -17.6987    11.7325   -21.6220 C       1      m1    -0.0014
    487 H          -15.5949    14.2498   -22.0100 H       1      m1     0.0159
    488 H          -16.1305    14.6030   -18.1915 H       2      m2     0.0153
    489 C          -15.5365    15.3256   -21.9004 C       1      m1    -0.0174
    490 H          -14.7615    11.7812   -19.5633 H       2      m2     0.0166
    491 C          -14.9855    11.7213   -18.5895 C       2      m2    -0.0226
    492 H          -12.8086    12.5096   -18.9025 H       2      m2     0.0192
    493 C          -11.9612    13.3344   -18.3589 C       2      m2    -0.0285
    494 H          -11.1869    13.8670   -20.1311 H       2      m2     0.0166
    495 C          -10.7872    13.2988   -19.3415 C       2      m2    -0.0316
    496 H          -10.3134    13.2635   -21.4282 H       2      m2     0.0126
    497 C          -10.3715    11.7892   -19.7529 C       2      m2     0.0037
    498 C          -10.1321    12.1422   -21.1094 C       2      m2    -0.0197
    499 H           -9.9205    13.9330   -18.9198 H       2      m2     0.0156
    500 H           -8.3939    14.3795   -20.6014 H       2      m2     0.0177
    501 C           -8.2528    14.9910   -21.3712 C       2      m2    -0.0230
    502 C           -7.9506    14.6074    22.6563 C       2      m2    -0.0109
    503 H           -6.1925    15.2236   -18.4214 H       2      m2     0.0148
    504 C           -5.4050    13.2280   -18.9223 C       2      m2    -0.0171
    505 H           -5.2022    13.0507   -20.0598 H       2      m2     0.0195
    506 C           -3.4625    12.5250   -22.0994 C       4      m4    -0.0051
    507 C           -3.1337    13.9820   -22.1869 C       4      m4     0.0074
    508 C           -2.7904    12.2161   -19.9716 C       4      m4    -0.0061
    509 C           -2.6927    11.5218   -21.2521 C       4      m4     0.0020
    510 C           -2.8520    14.0977   -18.6346 C       4      m4    -0.0033
    511 C           -2.9369    14.3190   -20.9984 C       4      m4    -0.0247
    512 C           -2.8279    13.6140   -19.9275 C       4      m4     0.0028
    513 C           -2.3306    11.8919   -18.6012 C       4      m4     0.0001
    514 H           -0.3605    12.1861   -18.6563 H      25     m25     0.0227
    515 H            0.3118    13.0154   -21.1366 H      25     m25     0.0186
    516 C            0.5544    11.5942   -18.7624 C      25     m25    -0.0192
    517 C            0.9499    12.0870   -21.2062 C      25     m25    -0.0159
    518 C            1.1081    11.1096   -19.9892 C      25     m25     0.0003
    519 C            1.7308    12.2719   -22.4291 C      25     m25    -0.0142
    520 C            3.0807    11.8460   -22.3272 C      25     m25    -0.0169
    521 C            3.4799    10.9480   -21.2464 C      25     m25     0.0039
    522 H            5.0632    14.7145   -20.6211 H      21     m21     0.0168
    523 H            7.7081    12.0593   -17.9227 H       1      m1     0.0137
    524 H            7.6839    15.3828   -22.6235 H       1      m1     0.0176
    525 H            8.0929    12.3470   -21.6460 H       1      m1     0.0200
    526 C            8.6317    12.4097   -18.4393 C       1      m1    -0.0189
    527 C            9.0812    12.4705   -21.2817 C       1      m1    -0.0351
    528 H            9.7306    11.5311   -21.3575 H       1      m1     0.0214
    529 C            9.3628    12.5006   -19.7315 C       1      m1     0.0046
    530 C            9.9106    12.7677   -22.7233 C       1      m1    -0.0025
    531 C           10.7291    12.7176   -19.7642 C       1      m1    -0.0027
    532 C           11.2500    12.8949   -22.1335 C       1      m1    -0.0021
    533 C           11.5684    12.9801   -18.4898 C       1      m1     0.0058
    534 C           11.8671    12.8949   -20.8459 C       1      m1    -0.0003
    535 C           13.3591    12.7650   -20.7016 C       1      m1     0.0034
    536 C           13.7736    12.5125   -19.3342 C       1      m1    -0.0155
    537 C           14.0083    15.6076   -19.9467 C       1      m1     0.0003
    538 C           14.2423    13.0373   -21.8882 C       1      m1    -0.0160
    539 C           14.3834    15.3876   -21.4250 C       1      m1     0.0025
    540 H           14.8922    12.4854   -19.2846 H       1      m1     0.0150
    541 H           15.3188    13.2527   -21.9883 H       1      m1     0.0198
    542 C           15.7982    14.9412   -21.5848 C       1      m1    -0.0212
    543 H           16.2554    15.1119   -22.5970 H       1      m1     0.0156
    544 H           16.0725    13.0839   -20.5046 H       1      m1     0.0171
    545 C           16.4744    14.8475   -19.1076 C       1      m1    -0.0024
    546 C           16.4638    14.0654   -20.6708 C       1      m1    -0.0160
    547 C           17.6361    15.0082   -18.3302 C       1      m1    -0.0192
    548 H           17.5413    13.1267   -18.7216 H       1      m1     0.0179
    549 C           17.9126    13.9164   -21.6546 C       1      m1    -0.0111
    550 C           18.1436    12.3985   -19.3305 C       1      m1    -0.0194
    551 C          -18.4025    12.6972   -20.8282 C       1      m1    -0.0010
    552 C          -18.1723    11.2865   -18.7246 C       1      m1    -0.0118
    553 H           18.3148    19.5277   -20.9618 H       6      m6     0.0151
    554 H          -17.8090    17.1893   -20.8376 H       6      m6     0.0203
    555 H          -17.4800    19.6685   -22.3701 H       1      m1     0.0145
    556 H          -16.4405    15.4938   -19.9192 H       1      m1     0.0128
    557 H          -15.9546    17.5135   -18.1581 H       1      m1     0.0164
    558 C          -15.8387    16.0702   -20.7657 C       1      m1    -0.0179
    559 C          -15.7024    17.9500   -19.1326 C       1      m1    -0.0190
    560 C          -15.3467    17.4551   -20.5481 C       1      m1     0.0024
    561 C          -15.2924    19.2759   -18.9388 C       1      m1    -0.0181
    562 C          -14.2716    18.0126   -21.1732 C       1      m1    -0.0030
    563 C          -14.3078    19.8100   -19.7940 C       1      m1     0.0071
    564 C          -14.1666    17.2452   -22.5653 C       1      m1     0.0006
    565 C          -13.5761    18.9325   -20.8720 C       1      m1    -0.0006
    566 C          -12.3105    19.4273   -21.7879 C       1      m1     0.0070
    567 H           -7.7570    16.3758   -18.8273 H       2      m2     0.0152
    568 C           -7.8211    19.6487   -18.6142 C       2      m2    -0.0004
    569 C           -7.8160    19.1885   -20.9495 C       2      m2     0.0043
    570 C           -7.8283    18.6205   -19.7493 C       2      m2    -0.0000
    571 C           -7.8623    16.3581   -20.9880 C       2      m2     0.0038
    572 C           -7.6135    17.0447   -19.7056 C       2      m2    -0.0203
    573 C           -7.3589    18.6206   -21.9444 C       2      m2    -0.0017
    574 C           -7.1440    17.1166   -22.0850 C       2      m2     0.0011
    575 H           -3.6453    16.1022   -22.5210 H       4      m4     0.0123
    576 H           -2.6814    17.6524   -19.6297 H       4      m4     0.0142
    577 C           -2.7146    19.7655   -18.5933 C       4      m4    -0.0216
    578 H           -3.3801    15.2573   -20.6144 H       4      m4     0.0185
    579 C           -2.2529    18.5478   -18.8924 C       4      m4    -0.0148
    580 C           -1.3832    16.2866   -18.7195 C       4      m4    -0.0176
    581 C           -1.2988    17.6171   -18.4291 C       4      m4    -0.0017
    582 H           -0.7047    16.3871   -19.7197 H       4      m4     0.0149
    583 H           -0.7882    16.8597   -21.4368 H       4      m4     0.0116
    584 C            0.1187    16.5783   -22.1535 C       4      m4    -0.0137
    585 H            1.4338   -19.2933   -20.9656 H       4      m4     0.0098
    586 H            1.3076    17.5225   -20.3010 H       4      m4     0.0195
    587 C            1.5898    18.0550   -21.2470 C       4      m4    -0.0173
    588 C            1.6415    19.4020   -21.6677 C       4      m4    -0.0065
    589 C            1.7546    16.9982   -22.2633 C       4      m4     0.0036
    590 C            2.0804    18.2892   -18.0580 C       4      m4     0.0037
    591 H            3.2305    19.7475   -19.5413 H       4      m4     0.0209
    592 C            3.1447    19.0573   -18.5175 C       4      m4    -0.0362
    593 C            5.0102    16.2211   -22.5482 C      21     m21    -0.0164
    594 C            5.2066    16.6330   -21.1725 C      21     m21     0.0042
    595 C            5.4454    15.5630   -20.1790 C      21     m21    -0.0235
    596 C            5.8557    18.0443   -20.9558 C      21     m21     0.0007
    597 C            5.9058    19.0280   -22.0428 C      21     m21     0.0026
    598 C            5.7193    16.3248   -18.9374 C      21     m21    -0.0149
    599 C            6.1248    17.7216   -18.7479 C      21     m21    -0.0016
    600 C            6.8044    18.3100   -19.9128 C      21     m21    -0.0028
    601 C            7.3034    19.8013   -19.6550 C      21     m21     0.0031
    602 C           10.2058    17.9892    22.5946 C       1      m1     0.0033
    603 C           10.9810    18.5207   -21.6829 C       1      m1    -0.0146
    604 H           10.1824    15.8542   -20.3533 H       1      m1     0.0203
    605 H           10.5099    18.4535   -20.5905 H       1      m1     0.0181
    606 C           11.2622    15.8056   -20.4857 C       1      m1    -0.0220
    607 C           11.8241    16.0791   -21.6988 C       1      m1     0.0075
    608 C           12.5751    15.3915   -19.7102 C       1      m1     0.0068
    609 C           13.2340    16.0748   -22.0841 C       1      m1    -0.0181
    610 H           15.9917    17.5112   -19.4209 H       6      m6     0.0199
    611 C           15.1700    15.4590   -19.0419 C       1      m1    -0.0046
    612 C           15.0802    19.1320   -17.9957 C       6      m6    -0.0348
    613 C           15.6604    18.5815   -19.5058 C       6      m6    -0.0109
    614 C           16.2051    19.2640   -20.7634 C       6      m6    -0.0026
    615 H           16.8346    16.6048   -20.4163 H       6      m6     0.0195
    616 C           17.6164    18.6350   -20.6498 C       6      m6    -0.0142
    617 C           17.9255    17.3775   -20.5802 C       6      m6    -0.0310
    618 C          -18.2094   -18.7133   -14.9220 C       5      m5    -0.0145
    619 C          -17.6143   -16.0658   -14.7852 C       5      m5    -0.0197
    620 C          -17.4518   -17.3698   -15.0971 C       5      m5     0.0038
    621 C          -17.5249   -19.9000   -14.6658 C       5      m5    -0.0143
    622 C          -15.9626   -17.5433   -15.4299 C       5      m5     0.0007
    623 C          -15.3493   -18.6822   -15.3753 C       5      m5    -0.0036
    624 C          -15.1448   -16.1205   -15.3776 C       5      m5     0.0021
    625 C          -13.9713   -18.9273   -15.0093 C       5      m5     0.0088
    626 C          -13.7381   -16.5992   -15.3555 C       5      m5    -0.0168
    627 C          -13.0988   -17.9297   -15.5728 C       5      m5    -0.0209
    628 H          -12.8240   -15.9074   -15.3903 H       5      m5     0.0135
    629 H          -12.1056   -18.0624   -16.0670 H       5      m5     0.0183
    630 H          -11.2534   -15.2798   -15.4793 H      19     m19     0.0126
    631 C          -10.1820   -18.3018   -14.2642 C       2      m2    -0.0174
    632 C           -9.9733   -19.6662   -13.9639 C       2      m2     0.0029
    633 H          -10.1491   -16.5464   -15.8001 H       2      m2     0.0153
    634 C           -9.9462   -17.7209   -15.6057 C       2      m2    -0.0212
    635 C           -9.3219   -18.6886   -16.5221 C       2      m2     0.0037
    636 H           -7.9848   -17.1770   -16.9769 H       2      m2     0.0168
    637 C           -8.3291   -18.0966   -17.3562 C       2      m2    -0.0203
    638 H           -5.7911   -16.9612   -17.2523 H      20     m20     0.0152
    639 C           -5.5761   -16.0592   -16.5841 C      20     m20    -0.0190
    640 C           -4.8374   -16.3087   -15.3943 C      20     m20    -0.0186
    641 H           -4.2858   -17.1877   -15.6951 H      20     m20     0.0152
    642 H           -3.1728   -18.6458   -16.2612 H       4      m4     0.0148
    643 C           -2.1650   -19.0260   -16.4898 C       4      m4    -0.0187
    644 C           -1.9081    19.8677   -17.2780 C       4      m4     0.0058
    645 H           -2.0191   -18.1650   -14.6381 H       4      m4     0.0166
    646 C           -1.5032   -18.7156   -15.3457 C       4      m4    -0.0175
    647 H           -0.1283   -17.1543   -17.4888 H      13     m13     0.0178
    648 C           -0.3357   -16.1839   -18.0777 C      13     m13    -0.0181
    649 C           -0.1737   -19.2971   -15.2059 C       4      m4    -0.0187
    650 H            0.2601   -19.1188   -14.1788 H       4      m4     0.0123
    651 H            4.5596   -19.4363   -14.7980 H      21     m21     0.0172
    652 H            5.9453   -16.5337   -17.1705 H       1      m1     0.0143
    653 C            6.4518   -18.3568   -13.9020 C       6      m6    -0.0218
    654 H            7.1309   -17.8971   -14.7324 H       6      m6     0.0111
    655 C            8.3673   -19.8549   -14.1601 C       6      m6    -0.0205
    656 H            8.1710   -18.9724   -14.7372 H       6      m6     0.0143
    657 H            9.4450   -17.0261   -15.1323 H       6      m6     0.0157
    658 H            9.5172   -19.0442   -15.6680 H       6      m6     0.0199
    659 C           10.4308   -16.7695   -15.8605 C       6      m6    -0.0160
    660 C           10.6452   -17.8293   -17.1345 C       6      m6    -0.0000
    661 C           10.7314   -16.8338   -18.1874 C       6      m6    -0.0172
    662 C           10.5727   -19.3969   -17.0401 C       6      m6    -0.0219
    663 C           11.4309   -15.7935   -15.8075 C       6      m6     0.0045
    664 C           11.6099   -18.9789   -14.0231 C       6      m6     0.0016
    665 C           12.1898   -16.5483   -18.1221 C       6      m6    -0.0010
    666 C           12.3959   -15.6850   -16.9355 C       6      m6    -0.0008
    667 H           13.1013   -19.3673   -17.7189 H       6      m6     0.0188
    668 C           12.8529   -18.6635   -14.4235 C       6      m6    -0.0149
    669 H           13.1208   -17.4889   -14.4278 H       6      m6     0.0162
    670 C           14.0350   -19.8191   -14.9232 C       6      m6    -0.0314
    671 H           15.2154   -19.6456   -14.7679 H       6      m6     0.0161
    672 H           17.7058   -18.7646   -15.6156 H       5      m5     0.0140
    673 H           18.3586   -15.7965   -13.9935 H       5      m5     0.0131
    674 C          -18.2545   -13.1371   -13.9863 C       5      m5    -0.0201
    675 C          -17.1675   -13.5934   -14.8271 C       5      m5     0.0015
    676 C          -16.9527   -14.9735   -15.2676 C       5      m5     0.0045
    677 C          -16.2584   -11.2761   -14.8667 C       5      m5     0.0025
    678 C          -16.0737   -12.7158   -14.7979 C       5      m5    -0.0200
    679 C          -15.6009   -14.7857   -15.6180 C       5      m5    -0.0247
    680 H          -15.1099   -12.6993   -15.5876 H       5      m5     0.0133
    681 H          -14.8896   -14.1653   -15.1872 H       5      m5     0.0170
    682 H          -12.9131   -13.2795   -17.1677 H      19     m19     0.0167
    683 H          -13.2998   -14.5838   -13.5327 H      17     m17     0.0171
    684 C          -12.2424   -13.6223   -17.9810 C      19     m19    -0.0228
    685 C          -11.2067   -12.2487   -16.7853 C      19     m19    -0.0016
    686 C          -10.3837   -13.3357   -15.7886 C      19     m19    -0.0000
    687 C          -10.2167   -14.6881   -15.3846 C      19     m19    -0.0162
    688 C           -9.7058   -12.4416   -15.1195 C      19     m19     0.0005
    689 C           -8.7889   -15.0946   -15.0547 C      19     m19    -0.0129
    690 C           -8.6984   -12.9036   -13.8486 C      19     m19     0.0060
    691 C           -8.4788   -14.3491   -13.7897 C      19     m19    -0.0164
    692 H           -8.4858   -15.9856   -15.6795 H      19     m19     0.0154
    693 H           -7.4552   -12.7732   -17.5263 H      20     m20     0.0198
    694 C           -5.3643   -14.5956   -17.0779 C      20     m20    -0.0009
    695 C           -5.6629   -13.6360   -15.9567 C      20     m20     0.0019
    696 H           -5.1289   -11.7930   -17.3451 H      20     m20     0.0196
    697 C           -5.3167   -13.9819   -14.5476 C      20     m20    -0.0039
    698 C           -5.1077   -12.3665   -16.4331 C      20     m20    -0.0177
    699 C           -5.0858   -15.3958   -14.2507 C      20     m20     0.0050
    700 C           -4.5881   -11.6045   -15.3778 C      20     m20    -0.0172
    701 C           -4.1691   -11.8575   -13.9737 C      20     m20    -0.0033
    702 H           -2.1130   -12.9834   -15.3085 H      13     m13     0.0196
    703 H           -2.5877   -15.2094   -16.2102 H      13     m13     0.0212
    704 C           -1.5448   -13.4017   -16.2290 C      13     m13    -0.0131
    705 C           -1.6779   -14.8027   -16.5654 C      13     m13    -0.0193
    706 C           -0.7068   -14.7950   -17.7086 C      13     m13     0.0078
    707 C           -0.5716   -12.2445   -16.4077 C      13     m13     0.0027
    708 C            0.4186   -13.8528   -18.1883 C      13     m13    -0.0035
    709 C            0.3852   -12.4825   -17.4930 C      13     m13    -0.0001
    710 C            1.5841   -11.6149   -17.5504 C      13     m13     0.0036
    711 H            3.6809   -14.4422   -16.1017 H       5      m5     0.0132
    712 H            3.9347   -14.9630   -18.2475 H       1      m1     0.0195
    713 H            4.0053   -12.3859   -16.9320 H       5      m5     0.0211
    714 C            4.6118   -13.8257   -15.7367 C       5      m5    -0.0070
    715 C            4.7849   -12.8240   -16.4435 C       5      m5    -0.0224
    716 H            5.4952   -15.2121   -14.2947 H       5      m5     0.0140
    717 C            5.4684   -14.3129   -14.8444 C       5      m5    -0.0235
    718 C            5.8130   -11.2051   -17.7807 C       5      m5    -0.0200
    719 C            6.0412   -12.2264   -16.5396 C       5      m5     0.0055
    720 C            6.7467   -13.4756   -14.6393 C       5      m5     0.0034
    721 C            7.1633   -12.5036   -15.7147 C       5      m5    -0.0022
    722 C            8.0084   -11.3373   -15.6912 C       5      m5    -0.0011
    723 H            8.4872   -11.8600   -18.2913 H       1      m1     0.0216
    724 C           10.4599   -15.1881   -13.8059 C       6      m6    -0.0179
    725 C           11.2311   -14.5230   -14.8426 C       6      m6     0.0025
    726 H           12.0194   -12.6022   -14.3350 H       6      m6     0.0169
    727 C           11.8844   -13.3897   -15.2456 C       6      m6    -0.0111
    728 C           13.1247   -13.3614   -15.9606 C       6      m6    -0.0164
    729 C           13.1481   -14.5270   -16.8255 C       6      m6    -0.0185
    730 H           13.9355   -14.3187   -17.3912 H       6      m6     0.0222
    731 H           13.9866   -12.7189   -15.6230 H       6      m6     0.0146
    732 H           14.5235   -15.8842   -17.6757 H       1      m1     0.0174
    733 C           15.3085   -15.3043   -18.0987 C       1      m1    -0.0173
    734 H           16.4323   -15.1063   -16.4475 H       1      m1     0.0171
    735 C           16.3755   -14.7075   -17.3740 C       1      m1    -0.0199
    736 C           16.6812   -11.7313   -13.9942 C       5      m5    -0.0222
    737 H           17.8888   -12.7769   -16.8405 H       1      m1     0.0190
    738 C           18.1118   -11.7101   -13.8708 C       5      m5     0.0018
    739 C          -18.4002   -12.8624   -17.9462 C       1      m1    -0.0122
    740 C          -18.0674    -9.7960   -15.0189 C       5      m5    -0.0014
    741 C          -17.8635    -7.6362   -16.2791 C       5      m5    -0.0169
    742 C          -17.7018   -11.1647   -14.7663 C       5      m5    -0.0019
    743 H          -17.0675    -6.9808   -16.6111 H       5      m5     0.0186
    744 C          -17.3332    -8.5352   -15.1637 C       5      m5     0.0017
    745 C          -15.9455    -9.0808   -15.3937 C       5      m5    -0.0213
    746 C          -15.5660   -10.4309   -15.7498 C       5      m5    -0.0206
    747 H          -15.5728    -8.4988   -16.0679 H       5      m5     0.0185
    748 H          -14.7333   -10.5636   -16.4182 H       5      m5     0.0144
    749 H          -14.1995    -6.7444   -14.3028 H       9      m9     0.0120
    750 H          -12.7551    -8.8708   -15.1550 H      19     m19     0.0130
    751 H          -12.2402   -10.2727   -17.3936 H      19     m19     0.0151
    752 H          -12.2168    -7.4838   -15.8615 H       2      m2     0.0141
    753 C          -11.7818    -9.2388   -14.6912 C      19     m19    -0.0210
    754 C          -11.8165   -11.0531   -16.4874 C      19     m19    -0.0210
    755 C          -11.5811    -6.7130   -17.8947 C       2      m2     0.0038
    756 C          -11.2332    -7.2360   -16.6679 C       2      m2    -0.0120
    757 C          -11.1176   -10.4652   -15.2008 C      19     m19     0.0042
    758 C           -9.9752    -7.6441   -16.2234 C       2      m2    -0.0202
    759 C          -10.0057   -11.0725   -14.6718 C      19     m19    -0.0050
    760 H           -9.8674    -8.2934   -15.2945 H       2      m2     0.0199
    761 C           -8.8980    -7.4034   -17.0992 C       2      m2     0.0072
    762 C           -7.6257    -7.5106   -16.6095 C       2      m2    -0.0251
    763 H           -7.7469    -7.6709   -15.6483 H       2      m2     0.0187
    764 C           -6.5378    -6.8383   -17.2868 C       2      m2    -0.0144
    765 H           -5.8358    -7.5488   -16.8997 H       2      m2     0.0183
    766 H           -4.4635   -10.5345   -15.6903 H      20     m20     0.0151
    767 H           -1.2065   -11.1232   -14.9453 H      13     m13     0.0206
    768 C           -0.5520   -10.9689   -15.7138 C      13     m13    -0.0231
    769 H            1.3646    -7.7755   -16.9747 H       2      m2     0.0147
    770 C            0.7506   -10.6106   -15.5048 C      13     m13     0.0063
    771 H            1.5652    -7.3519   -15.1554 H      13     m13     0.0156
    772 C            1.3078    -7.2794   -14.0445 C      13     m13    -0.0152
    773 C            1.4210    -7.1797   -18.1108 C       2      m2    -0.0194
    774 C            1.7332   -10.5040   -16.6611 C      13     m13    -0.0206
    775 C            1.7316   -10.8282   -14.2243 C      13     m13    -0.0032
    776 H            2.2746    -9.5018   -16.8557 H      13     m13     0.0162
    777 H            4.7205    -7.7143   -14.3429 H      14     m14     0.0171
    778 C            6.5931   -10.0594   -17.6974 C       5      m5    -0.0174
    779 H            6.4510    -8.9898   -18.2992 H       5      m5     0.0127
    780 C            7.8030   -10.2426   -16.7506 C       5      m5     0.0014
    781 H            8.9856    -8.8110   -17.5342 H       5      m5     0.0134
    782 C            8.4734   -11.0339   -14.3983 C       5      m5     0.0021
    783 C            8.7042    -9.2298   -16.6010 C       5      m5    -0.0195
    784 C            9.5102    -9.8531   -14.2552 C       5      m5    -0.0031
    785 C            9.5241    -9.0335   -15.4632 C       5      m5    -0.0168
    786 H           10.3537    -8.4014   -15.6492 H       5      m5     0.0125
    787 H           10.8536   -10.5560   -16.9500 H       1      m1     0.0190
    788 C           11.0552   -11.1185   -17.8246 C       1      m1    -0.0158
    789 C           11.9662    -9.0319   -14.1909 C       5      m5    -0.0340
    790 H           11.6178    -9.2860   -15.2363 H       5      m5     0.0160
    791 H           11.5562    -7.9498   -14.1021 H       5      m5     0.0185
    792 C           12.4135   -11.0453   -17.5695 C       1      m1    -0.0210
    793 H           12.8555   -11.1894   -16.5266 H       1      m1     0.0158
    794 C           14.3403    -9.8575   -13.9807 C       5      m5    -0.0160
    795 H           14.6518    -9.8639   -16.3100 H       5      m5     0.0152
    796 C           15.0769   -10.0483   -15.3519 C       5      m5    -0.0230
    797 H           15.8325    -7.8304   -15.6534 H       5      m5     0.0144
    798 C           16.3844   -10.6490   -15.0399 C       5      m5     0.0017
    799 C           16.8336    -8.2979   -15.5574 C       5      m5    -0.0141
    800 H           17.5584    -6.5497   -16.9284 H       5      m5     0.0183
    801 C           17.3667    -9.4953   -14.9106 C       5      m5     0.0009
    802 C           17.5430    -7.6445   -16.5972 C       5      m5    -0.0173
    803 H          -17.3985    -3.0037   -14.8365 H       9      m9     0.0214
    804 C          -16.6740    -2.8665   -15.4545 C       9      m9    -0.0219
    805 H          -15.7867    -5.9709   -14.2882 H       9      m9     0.0189
    806 C          -15.5825    -3.9147   -15.5808 C       9      m9     0.0049
    807 C          -15.4337    -5.2611   -15.1437 C       9      m9    -0.0179
    808 C          -14.2680    -3.5241   -16.2864 C       9      m9    -0.0056
    809 C          -14.1623    -5.9346   -15.1867 C       9      m9    -0.0147
    810 C          -14.1445    -2.3198   -16.7694 C       9      m9    -0.0005
    811 C          -13.2103    -4.1640   -15.8143 C       9      m9     0.0122
    812 C          -12.8972    -5.3391   -15.1797 C       9      m9    -0.0170
    813 H          -12.4463    -5.4653   -14.0693 H       9      m9     0.0130
    814 C          -12.0970    -2.3661   -15.6207 C       9      m9    -0.0188
    815 C          -11.8760    -4.0021   -15.7041 C       9      m9    -0.0206
    816 H          -11.4071    -1.4513   -15.1973 H       9      m9     0.0133
    817 H          -10.8348    -4.2175   -15.5884 H       9      m9     0.0185
    818 H           -7.7698    -3.0712   -15.6921 H       2      m2     0.0165
    819 H           -6.2903    -3.5161   -16.7707 H       2      m2     0.0167
    820 C           -6.1227    -2.6615   -17.4060 C       2      m2    -0.0187
    821 C           -4.8716    -2.5540   -18.2238 C       2      m2    -0.0190
    822 H           -4.1963    -3.4069   -14.7123 H       3      m3     0.0153
    823 C           -4.2835    -3.9044   -13.7314 C       3      m3    -0.0215
    824 C           -4.0995    -5.3721   -18.2088 C       2      m2    -0.0164
    825 H           -4.2969    -4.6057   -17.3880 H       2      m2     0.0147
    826 H           -3.8293    -3.0130   -18.0061 H       2      m2     0.0132
    827 H           -2.6712    -5.4307   -13.4833 H       3      m3     0.0178
    828 H           -2.0071    -4.8081   -18.4606 H       2      m2     0.0165
    829 H            1.7597    -4.9895   -14.1219 H      13     m13     0.0157
    830 C            1.1380    -5.8747   -13.7277 C      13     m13    -0.0182
    831 C            2.1376    -5.8876   -17.8389 C       2      m2    -0.0019
    832 C            2.5841    -4.5546   -18.1580 C       2      m2     0.0013
    833 C            2.9902    -3.4737   -17.1450 C       2      m2     0.0033
    834 H            3.7652    -5.6304   -14.2784 H      14     m14     0.0196
    835 C            3.5805    -6.4015   -17.6173 C       2      m2    -0.0186
    836 C            3.9837    -4.1800   -16.3227 C       2      m2    -0.0192
    837 C            4.4052    -5.4484   -16.7250 C       2      m2    -0.0104
    838 H            4.2490    -3.4990   -15.3888 H       2      m2     0.0166
    839 H            5.0736    -5.5240   -15.8267 H       2      m2     0.0172
    840 H            7.7950    -2.5433   -16.4627 H      23     m23     0.0187
    841 H            8.3386    -3.6557   -17.5719 H      23     m23     0.0154
    842 H            9.5933    -5.4423   -18.4252 H      23     m23     0.0100
    843 H           10.1422    -2.2460   -15.3784 H      23     m23     0.0202
    844 H           14.7920    -2.1121   -16.7448 H       2      m2     0.0156
    845 C           14.5388    -4.3197   -14.3679 C       2      m2     0.0060
    846 C           14.6296    -2.3921   -15.6933 C       2      m2    -0.0165
    847 C           15.1365    -3.5887   -15.5621 C       2      m2    -0.0200
    848 C           14.9282    -5.4937   -14.2141 C       2      m2    -0.0214
    849 H           15.4983    -3.8341   -16.5337 H       2      m2     0.0138
    850 H           15.2526    -6.2951   -15.0094 H       2      m2     0.0149
    851 H           16.4866    -4.1055   -18.1244 H      22     m22     0.0126
    852 C           18.3459     1.6502   -17.2260 C      16     m16    -0.0083
    853 H          -18.1219     2.2282   -16.2647 H      16     m16     0.0200
    854 C          -17.6313     2.1076   -18.1815 C      16     m16    -0.0190
    855 H          -17.4079    -0.8162   -16.3656 H       9      m9     0.0160
    856 C          -16.6297    -1.6842   -16.2418 C       9      m9    -0.0172
    857 C          -15.4172    -1.6344   -17.0485 C       9      m9     0.0029
    858 C          -15.0549    -0.3933   -17.6419 C       9      m9    -0.0248
    859 H          -14.7670     1.7655   -14.8772 H       9      m9     0.0170
    860 H          -14.3869     0.3208   -13.8320 H       2      m2     0.0157
    861 C          -13.9708     0.3591   -17.0268 C       9      m9     0.0057
    862 C          -13.7941     1.8441   -17.5536 C       9      m9    -0.0063
    863 H          -13.5229    -1.8579   -13.8670 H       2      m2     0.0194
    864 C          -13.4014    -0.0427   -15.7199 C       9      m9    -0.0261
    865 C          -12.9563    -1.5601   -16.1035 C       9      m9    -0.0006
    866 H          -12.5305     0.4435   -15.1708 H       9      m9     0.0195
    867 H          -10.7283     1.0204   -16.9141 H       2      m2     0.0154
    868 C          -10.4782     1.4461   -14.6153 C       2      m2    -0.0192
    869 C          -10.5760     2.1319   -16.6908 C       2      m2    -0.0161
    870 H           -9.5467     0.7569   -15.0174 H       2      m2     0.0178
    871 H           -9.5132    -0.5877   -17.7654 H       9      m9     0.0200
    872 H           -7.7026     1.2191   -14.0075 H       2      m2     0.0171
    873 C           -7.9486    -0.6869   -14.7689 C       2      m2     0.0005
    874 C           -7.6662    -1.9395   -15.5921 C       2      m2    -0.0226
    875 C           -7.6117     0.6645   -14.9726 C       2      m2    -0.0273
    876 C           -6.7710     1.0463   -16.1588 C       2      m2     0.0033
    877 C           -6.7447    -1.5540   -16.5332 C       2      m2     0.0007
    878 C           -6.5087     2.3828   -16.8061 C       2      m2    -0.0202
    879 C           -6.3235    -0.1297   -16.9083 C       2      m2    -0.0029
    880 H           -5.6128     0.3422   -14.3536 H       7      m7     0.0201
    881 C           -4.7781     0.9014   -14.6697 C       7      m7    -0.0177
    882 C           -4.4044     1.7421   -13.7355 C       7      m7    -0.0162
    883 H           -4.0007    -0.9784   -15.8718 H       7      m7     0.0163
    884 C           -4.0640     0.9745   -16.1568 C       7      m7     0.0046
    885 C           -3.1561    -0.1592   -16.1394 C       7      m7    -0.0130
    886 C           -3.2929     2.2789   -16.4888 C       7      m7     0.0025
    887 C           -2.0637     1.8910   -17.0958 C       7      m7     0.0015
    888 C           -1.7965    -0.4894   -16.4028 C       7      m7    -0.0183
    889 H           -1.8847    -1.5576   -16.9255 H       7      m7     0.0146
    890 C           -1.3043     0.6390   -17.2785 C       7      m7     0.0045
    891 C            0.1002     0.4729   -17.9845 C       7      m7    -0.0225
    892 H            0.4224    -0.3854   -17.6326 H       7      m7     0.0198
    893 C            2.4922    -2.1104   -17.0397 C       2      m2    -0.0183
    894 H            2.9408     1.6012   -14.4451 H       2      m2     0.0166
    895 H            2.4466    -1.6938   -16.0413 H       2      m2     0.0143
    896 C            3.9044     1.4854   -14.3957 C       2      m2    -0.0196
    897 H            5.2029    -1.5091   -13.9483 H      14     m14     0.0218
    898 C            6.1939    -1.3848   -14.2209 C      14     m14    -0.0423
    899 H            6.4686    -1.4310   -15.2452 H      14     m14     0.0246
    900 H            6.8363     2.7076   -17.5690 H       2      m2     0.0151
    901 C            7.9944    -1.8398   -17.1310 C      23     m23    -0.0256
    902 C            9.1428    -0.9263   -16.7043 C      23     m23     0.0068
    903 C            9.3017     0.4504   -17.1286 C      23     m23     0.0009
    904 C           10.1357    -1.3839   -15.8004 C      23     m23    -0.0231
    905 H           10.7163    -0.4326   -13.7461 H      23     m23     0.0149
    906 C           10.6332     1.1071   -16.9730 C      23     m23     0.0020
    907 C           10.8106    -0.3271   -14.9017 C      23     m23    -0.0098
    908 C           10.7942     0.9988   -15.4617 C      23     m23    -0.0159
    909 H           11.3450     1.9762   -14.8098 H      23     m23     0.0107
    910 H           13.4150     0.7200   -15.5547 H       2      m2     0.0181
    911 C           14.0241     0.1347   -14.9177 C       2      m2    -0.0228
    912 C           13.9369    -1.2862   -14.8597 C       2      m2     0.0040
    913 H           14.6083    -0.3417   -18.1184 H      16     m16     0.0160
    914 H           16.7557     0.9609   -16.1039 H      16     m16     0.0204
    915 C           17.2549     0.8279   -17.1080 C      16     m16    -0.0204
    916 C          -18.3836     4.1467   -15.5001 C       1      m1    -0.0248
    917 C          -17.9216     5.3110   -17.3936 C       1      m1    -0.0160
    918 H          -17.7130     4.8020   -15.2741 H       1      m1     0.0220
    919 H          -16.9156     5.6653   -16.7278 H       1      m1     0.0181
    920 H          -16.6982     2.8593   -18.0969 H      16     m16     0.0190
    921 H          -15.2478     3.5787   -13.8774 H       9      m9     0.0164
    922 C          -14.9581     2.5864   -15.6111 C       9      m9    -0.0181
    923 C          -15.1755     3.8326   -15.0249 C       9      m9    -0.0154
    924 C          -15.0014     5.1420   -15.4524 C       9      m9     0.0017
    925 C          -15.0061     6.4327   -14.8533 C       9      m9    -0.0184
    926 C          -14.8714     5.3864   -17.0667 C       9      m9    -0.0027
    927 C          -14.4917     4.1022   -17.7401 C       9      m9    -0.0035
    928 C          -14.3473     2.8435   -16.8893 C       9      m9     0.0052
    929 C          -11.1992     3.7713   -13.6681 C       2      m2    -0.0025
    930 C          -11.1416     3.9400   -15.1314 C       2      m2     0.0013
    931 C          -10.3927     2.7513   -15.3635 C       2      m2     0.0045
    932 C          -10.2329     4.3972   -17.2584 C       2      m2    -0.0173
    933 C          -10.1389     3.0963   -17.6120 C       2      m2    -0.0135
    934 C          -10.2733     4.7061   -15.9598 C       2      m2    -0.0015
    935 C           -9.6798     5.8780   -13.7719 C       2      m2    -0.0241
    936 C           -9.5995     5.7941   -15.1635 C       2      m2    -0.0007
    937 H           -8.9526     5.8995   -16.8079 H       2      m2     0.0147
    938 C           -8.4665     6.4615   -15.8372 C       2      m2    -0.0184
    939 H           -7.2563     2.9531   -16.3277 H       2      m2     0.0188
    940 H           -7.0907     4.8069   -17.0555 H       2      m2     0.0205
    941 H           -5.4788     5.8749   -15.1342 H       2      m2     0.0207
    942 C           -5.1018     6.5376   -15.8618 C       2      m2    -0.0470
    943 C           -3.3891     2.8019   -14.0462 C       7      m7    -0.0003
    944 C           -3.1673     3.3301   -15.5401 C       7      m7     0.0012
    945 C           -2.2302     4.3619   -15.9361 C       7      m7    -0.0153
    946 H           -2.0111     5.2758   -15.2337 H       7      m7     0.0164
    947 C           -1.5384     4.2110   -17.2391 C       7      m7    -0.0144
    948 C           -1.1800     2.9318   -17.7865 C       7      m7     0.0057
    949 H           -1.0053     5.2727   -17.2171 H       7      m7     0.0153
    950 C           -0.2514     5.6330   -13.7308 C       7      m7    -0.0077
    951 C            0.6578     5.0737   -14.7036 C       7      m7    -0.0190
    952 C            0.8416     3.5232   -14.6163 C       7      m7    -0.0134
    953 H            1.6255     5.3559   -15.0492 H       7      m7     0.0137
    954 H            1.7867     3.4661   -14.9861 H       7      m7     0.0150
    955 C            2.7474     6.4964   -17.9514 C       1      m1    -0.0187
    956 C            4.0076     4.3330   -17.8452 C       1      m1    -0.0216
    957 H            4.0984     4.5616   -16.8351 H       1      m1     0.0133
    958 H            3.9909     2.9432   -16.1491 H       2      m2     0.0137
    959 C            4.5577     2.3461   -15.2808 C       2      m2    -0.0175
    960 H            5.7208     5.9262   -17.4554 H      25     m25     0.0162
    961 C            5.9990     2.1934   -15.3465 C       2      m2     0.0044
    962 C            6.5951     2.8190   -14.1836 C       2      m2    -0.0025
    963 C            6.6750     6.0184   -18.0408 C      25     m25    -0.0188
    964 C            7.0685     2.4861   -16.5713 C       2      m2    -0.0181
    965 H            7.5377     6.7151   -14.5430 H       2      m2     0.0149
    966 C            7.7131     3.2591   -13.8324 C       2      m2     0.0022
    967 C            8.1650     3.0311   -16.2811 C       2      m2    -0.0119
    968 C            8.6541     3.3717   -14.8524 C       2      m2    -0.0008
    969 H            8.3165     3.5300   -17.3719 H       2      m2     0.0149
    970 H            8.7198     5.7080   -16.2880 H       2      m2     0.0177
    971 C            9.6697     6.2519   -15.5204 C       2      m2    -0.0286
    972 C            9.8004     2.7831   -14.1302 C       2      m2    -0.0153
    973 H           10.1629     2.6790   -15.2039 H       2      m2     0.0190
    974 C           10.9502     2.2756   -17.6811 C      23     m23    -0.0198
    975 C           10.9952     6.2521   -14.6720 C       2      m2     0.0045
    976 H           11.9424     4.1160   -14.6912 H       2      m2     0.0129
    977 H           11.7835     2.9039   -17.4010 H      23     m23     0.0163
    978 C           12.2102     5.2328   -14.4867 C       2      m2    -0.0163
    979 C           13.3740     5.6955   -14.1938 C       2      m2    -0.0207
    980 C           15.0398     2.4157   -17.1028 C       1      m1    -0.0073
    981 H           15.8278     2.3931   -14.2723 H       1      m1     0.0116
    982 C           16.3736     2.7642   -16.5651 C       1      m1     0.0018
    983 C           16.6235     2.7342   -15.1085 C       1      m1    -0.0207
    984 C           16.8138     3.8443   -17.2942 C       1      m1    -0.0004
    985 C           17.7545     3.4095   -14.5399 C       1      m1    -0.0128
    986 C           18.0842     4.3342   -16.6905 C       1      m1     0.0052
    987 H          -18.0534    10.9385   -15.4549 H       2      m2     0.0215
    988 C          -17.9371     8.2941   -14.6814 C       2      m2    -0.0187
    989 H          -17.3743     8.9629   -15.2570 H       2      m2     0.0175
    990 C          -17.4009     7.6196   -13.6021 C       2      m2    -0.0140
    991 C          -15.3115     7.8999   -16.7166 C       9      m9    -0.0205
    992 H          -15.9507     8.5698   -17.0924 H       9      m9     0.0176
    993 C          -15.1583     6.5331   -17.5927 C       9      m9    -0.0020
    994 C          -15.0949     7.7695   -15.3887 C       9      m9    -0.0127
    995 H          -14.9799     8.8379   -14.8331 H       9      m9     0.0158
    996 C          -13.6840    10.2167   -16.9176 C       2      m2     0.0006
    997 H          -12.9233     7.2159   -16.8945 H       2      m2     0.0287
    998 C          -12.4178     9.2885   -16.8147 C       2      m2     0.0039
    999 C          -12.1536     7.9424   -16.9170 C       2      m2    -0.0423
   1000 C          -11.1169    11.0190   -17.5469 C       2      m2     0.0007
   1001 H          -11.1114     7.8945   -17.0916 H       2      m2     0.0260
   1002 C          -10.8377     9.9700   -16.6000 C       2      m2    -0.0132
   1003 H          -11.3136    10.3627   -15.5295 H       2      m2     0.0215
   1004 C           -9.3442     9.1970   -17.0243 C       2      m2    -0.0339
   1005 H           -9.0907     8.1689   -16.8968 H       2      m2     0.0224
   1006 C           -8.7023     9.9599   -13.9587 C       2      m2    -0.0115
   1007 H           -8.6656     9.8652   -16.4222 H       2      m2     0.0218
   1008 H           -7.9060     9.4114   -14.4779 H       2      m2     0.0170
   1009 C           -7.3784     7.3550   -15.5415 C       2      m2    -0.0232
   1010 H           -6.6884     7.5700   -14.7526 H       2      m2     0.0173
   1011 C           -6.1774     7.4090   -16.4529 C       2      m2     0.0044
   1012 C           -5.9768     7.3314   -17.9424 C       2      m2    -0.0063
   1013 C           -5.6899     9.7290   -17.8725 C       2      m2     0.0007
   1014 C           -4.8811    10.0878   -16.6831 C       2      m2     0.0019
   1015 C           -4.4190    10.3374   -14.1705 C       2      m2     0.0005
   1016 H           -4.0139     8.5080   -15.8790 H       2      m2     0.0179
   1017 C           -4.3899     9.4841   -15.5357 C       2      m2    -0.0224
   1018 H           -4.2655     6.2254   -16.4629 H       2      m2     0.0233
   1019 H           -4.2492     8.0903   -13.9595 H       2      m2     0.0189
   1020 C           -1.5370    10.7966   -16.6801 C       4      m4    -0.0131
   1021 C           -1.5598    10.7247   -18.1031 C       4      m4    -0.0191
   1022 H           -1.3780     9.9202   -15.8454 H       4      m4     0.0131
   1023 H            1.9473     8.6378   -15.5252 H      25     m25     0.0129
   1024 C            2.1612    10.0351   -17.5676 C      25     m25    -0.0049
   1025 C            2.4678     8.8678   -16.5498 C      25     m25    -0.0210
   1026 H            2.7131    11.0560   -13.2459 H       4      m4     0.0177
   1027 H            3.1889     6.5252   -17.0802 H       1      m1     0.0177
   1028 C            3.8456     8.6862   -16.6053 C      25     m25    -0.0169
   1029 H            4.3676     8.1798   -15.7324 H      25     m25     0.0136
   1030 C            4.6225     8.6776   -17.8080 C      25     m25    -0.0008
   1031 H            5.3455     6.7521   -14.3205 H       7      m7     0.0127
   1032 H            5.5311     9.3301   -14.1522 H       7      m7     0.0134
   1033 C            6.1231     8.5316   -17.7535 C      25     m25    -0.0045
   1034 H            6.7675    10.2345   -16.6497 H      25     m25     0.0154
   1035 C            7.2039     9.3886   -17.2311 C      25     m25    -0.0213
   1036 C            8.6855     6.7596   -14.5056 C       2      m2    -0.0074
   1037 H            9.1162    11.0759   -16.7574 H      25     m25     0.0190
   1038 C            8.6646     9.2706   -17.3179 C      25     m25     0.0008
   1039 C            9.6330    10.3048   -17.1805 C      25     m25    -0.0181
   1040 H            9.9730     7.1296   -16.0963 H       2      m2     0.0238
   1041 C           10.8694    10.6040   -17.8514 C      25     m25    -0.0060
   1042 H           11.8480    11.2102   -17.7927 H      25     m25     0.0186
   1043 C           12.3608     8.0989   -14.2159 C       2      m2    -0.0008
   1044 C           12.8980     9.3246   -14.0909 C       2      m2     0.0029
   1045 C           13.5731     7.2066   -14.3690 C       2      m2     0.0079
   1046 H           14.6097    10.7503   -14.7948 H       2      m2     0.0158
   1047 C           14.2081     9.7436   -14.5889 C       2      m2    -0.0136
   1048 C           14.8716     7.4522   -14.9355 C       2      m2    -0.0167
   1049 C           15.1774     8.9797   -15.2732 C       2      m2    -0.0129
   1050 H           15.6097     6.7102   -15.1745 H       2      m2     0.0203
   1051 H           16.1806     9.3372   -15.7879 H       2      m2     0.0149
   1052 C           17.2723    10.0962   -14.0773 C       2      m2     0.0030
   1053 C           17.6818     8.7130   -14.1568 C       2      m2     0.0005
   1054 H           17.6176    11.9448   -14.2853 H       2      m2     0.0171
   1055 H          -16.9450    15.5454   -16.4948 H       2      m2     0.0165
   1056 H          -17.5346    13.6254   -14.3218 H       2      m2     0.0125
   1057 C          -16.6587    14.6137   -16.4313 C       2      m2    -0.0204
   1058 C          -16.5433    13.7551   -15.1207 C       2      m2    -0.0144
   1059 C          -16.3188    13.9078   -17.4406 C       2      m2    -0.0167
   1060 C          -16.2414    11.6574   -13.6415 C       2      m2    -0.0213
   1061 C          -15.7349    12.6311   -14.8730 C       2      m2     0.0030
   1062 C          -15.3805    12.6953   -17.4887 C       2      m2     0.0038
   1063 C          -15.2430    11.9250   -16.0855 C       2      m2    -0.0012
   1064 C          -14.0949    11.1680   -15.8420 C       2      m2    -0.0021
   1065 C          -12.8901    11.6883   -14.9736 C       2      m2     0.0004
   1066 H          -12.1799    14.2254   -17.7513 H       2      m2     0.0178
   1067 H          -11.3452    13.5773   -15.4396 H       2      m2     0.0159
   1068 C          -11.8950    12.6899   -15.7463 C       2      m2    -0.0203
   1069 C          -11.5510    12.2977   -17.1694 C       2      m2     0.0005
   1070 H          -10.2592    14.1823   -14.3826 H       2      m2     0.0135
   1071 C           -8.9958    11.2583   -14.2409 C       2      m2    -0.0190
   1072 H           -8.5453    11.7814   -14.9896 H       2      m2     0.0188
   1073 H           -7.0769    14.3634   -16.9308 H       2      m2     0.0178
   1074 C           -6.1037    14.7287   -16.6011 C       2      m2    -0.0363
   1075 C           -5.9036    13.5181   -15.8488 C       2      m2     0.0036
   1076 C           -5.6419    12.0647   -18.1323 C       2      m2     0.0063
   1077 C           -5.5392    14.3567   -18.2158 C       2      m2    -0.0103
   1078 C           -5.5622    12.4328   -16.7556 C       2      m2    -0.0020
   1079 C           -5.2371    13.7690   -14.5833 C       2      m2    -0.0190
   1080 H           -5.5099    14.7838   -14.2831 H       2      m2     0.0166
   1081 C           -5.0833    11.3957   -16.0782 C       2      m2     0.0016
   1082 C           -4.7986    12.5897   -13.8200 C       2      m2     0.0019
   1083 C           -4.8959    11.4021   -14.6322 C       2      m2     0.0004
   1084 C           -2.4989    13.0207   -17.8890 C       4      m4     0.0004
   1085 C           -2.5585    14.5462   -15.8350 C       4      m4     0.0006
   1086 C           -2.3898    15.4369   -18.2938 C       4      m4    -0.0009
   1087 C           -2.2383    14.7959   -14.6487 C       4      m4     0.0085
   1088 C           -2.1200    13.3473   -16.6659 C       4      m4     0.0010
   1089 C           -1.4935    12.1183   -16.1626 C       4      m4     0.0036
   1090 C           -1.4416    13.6842   -14.1601 C       4      m4    -0.0217
   1091 C           -1.0847    12.4271   -14.8270 C       4      m4    -0.0135
   1092 H            0.0211    12.4544   -14.1986 H       4      m4     0.0170
   1093 H            1.2152    11.6597   -16.4392 H      25     m25     0.0177
   1094 C            1.1295    11.1085   -17.5288 C      25     m25    -0.0153
   1095 C            2.0987    12.9424   -14.4027 C       4      m4     0.0023
   1096 C            2.2559    14.3359   -14.2320 C       4      m4    -0.0008
   1097 H            2.5555    13.7322   -17.7777 H       4      m4     0.0211
   1098 C            2.2235    15.0726   -15.1908 C       4      m4     0.0039
   1099 H            2.8739    11.3760   -16.1126 H       4      m4     0.0185
   1100 C            2.7556    12.4338   -15.6785 C       4      m4    -0.0163
   1101 C            2.8452    13.3078   -16.8814 C       4      m4    -0.0164
   1102 C            3.0509    14.6784   -16.4078 C       4      m4    -0.0173
   1103 C            6.1416    15.2150   -15.8525 C      21     m21    -0.0014
   1104 H            7.1315    13.2366   -16.8569 H      21     m21     0.0109
   1105 C            6.7838    13.9457   -15.8698 C      21     m21    -0.0157
   1106 C            6.9743    13.1128   -14.6636 C      21     m21    -0.0148
   1107 H            7.8236    12.3134   -14.6120 H      21     m21     0.0104
   1108 H            8.6114    13.1005   -16.4185 H       1      m1     0.0102
   1109 C            9.3838    12.8311   -17.3590 C       1      m1    -0.0152
   1110 H           10.0477    13.8087   -15.6707 H       6      m6     0.0162
   1111 C           10.4663    14.8139   -15.4576 C       6      m6    -0.0122
   1112 C           10.8133    13.2975   -17.3892 C       1      m1    -0.0209
   1113 H           11.6476    13.3476   -16.5608 H       1      m1     0.0151
   1114 H           11.3790    15.4045   -17.6696 H       1      m1     0.0186
   1115 C           11.5808    14.8388   -15.0109 C       6      m6    -0.0156
   1116 H           12.2963    13.9079   -14.7266 H       6      m6     0.0145
   1117 C           12.8987    12.5720   -18.2478 C       1      m1    -0.0251
   1118 H           13.2441    12.4206   -17.3378 H       1      m1     0.0163
   1119 C           13.6335    15.4306   -17.2481 C       1      m1    -0.0222
   1120 H           13.2586    15.5732   -16.2592 H       1      m1     0.0210
   1121 H           14.2498    15.2167   -13.3939 H       6      m6     0.0182
   1122 C           15.9627    15.5965   -16.6537 C       1      m1    -0.0194
   1123 C           17.4030    15.3729   -16.8463 C       1      m1    -0.0171
   1124 H           17.9595    15.1000   -15.9230 H       1      m1     0.0144
   1125 H           18.2982    11.1803   -17.6420 H       1      m1     0.0125
   1126 C           18.3040    11.1238   -14.6080 C       2      m2    -0.0373
   1127 H          -18.0758    19.0788   -14.7404 H       5      m5     0.0204
   1128 H          -15.7147    17.4452   -14.5943 H       5      m5     0.0167
   1129 C          -16.0854    19.8419   -15.1645 C       5      m5     0.0046
   1130 C          -15.5460    18.4077   -15.1414 C       5      m5    -0.0194
   1131 C          -14.2027    18.4968   -15.1545 C       5      m5    -0.0136
   1132 H          -13.3164    17.8058   -15.2263 H       5      m5     0.0145
   1133 C          -13.0051    19.6825   -14.9469 C       5      m5    -0.0383
   1134 H          -12.4581    19.9146   -15.9990 H       5      m5     0.0203
   1135 H          -12.3722    19.3850   -14.2364 H       5      m5     0.0221
   1136 C           -8.9542    19.3709   -14.8214 C       2      m2    -0.0040
   1137 C           -8.6841    17.8656   -14.7525 C       2      m2     0.0030
   1138 C           -8.8004    19.7535   -16.2088 C       2      m2    -0.0016
   1139 C           -7.9174    19.0189   -17.3143 C       2      m2     0.0036
   1140 C           -7.3737    17.5543   -15.4185 C       2      m2    -0.0219
   1141 C           -7.1312    18.0274   -16.8068 C       2      m2    -0.0172
   1142 H           -6.3378    17.3022   -16.9983 H       2      m2     0.0164
   1143 H           -6.5546    17.0772   -14.7880 H       2      m2     0.0140
   1144 H           -5.9390    15.7437   -16.0134 H       2      m2     0.0165
   1145 H           -3.3494    17.7906   -16.8014 H       4      m4     0.0195
   1146 C           -3.2418    16.7854   -16.2417 C       4      m4    -0.0185
   1147 C           -2.8838    15.5843   -16.8450 C       4      m4     0.0047
   1148 H           -2.3401    17.9418   -14.6432 H       4      m4     0.0169
   1149 C           -2.6603    16.9501   -14.9346 C       4      m4    -0.0100
   1150 C           -2.2502    16.0595   -13.9817 C       4      m4    -0.0224
   1151 C           -0.6965    19.2942   -17.1087 C       4      m4    -0.0033
   1152 C           -0.1906    17.9688   -17.8274 C       4      m4    -0.0012
   1153 C            0.1470    19.5169   -16.0723 C       4      m4     0.0026
   1154 H            0.3653    17.3745   -13.7662 H       4      m4     0.0154
   1155 C            1.0533    16.5444   -14.0454 C       4      m4    -0.0210
   1156 C            1.1153    17.2848   -17.6851 C       4      m4    -0.0054
   1157 C            1.4530    18.7875   -15.5767 C       4      m4    -0.0165
   1158 C            1.5013    17.3275   -16.2412 C       4      m4     0.0017
   1159 H            1.1994    18.7104   -14.3754 H       4      m4     0.0147
   1160 C            1.6127    16.3343   -15.1858 C       4      m4     0.0041
   1161 H            3.8639    19.1641   -17.7752 H       4      m4     0.0262
   1162 H            4.0569    15.1602   -16.5748 H       4      m4     0.0215
   1163 C            4.2697    19.3917   -14.3803 C      21     m21    -0.0157
   1164 C            5.3083    17.7456   -16.1828 C      21     m21    -0.0001
   1165 C            5.2399    17.0826   -14.1232 C      21     m21     0.0023
   1166 C            5.1572    18.3244   -14.8590 C      21     m21     0.0025
   1167 C            5.3518    15.7689   -14.5423 C      21     m21    -0.0004
   1168 C            5.6352    18.4423   -17.5780 C      21     m21    -0.0042
   1169 H            5.8538    15.4816   -18.1807 H      21     m21     0.0161
   1170 C            6.3101    16.6484   -16.4358 C      21     m21    -0.0197
   1171 C            6.3963    19.7086   -17.3315 C      21     m21    -0.0173
   1172 H            6.8025   -19.7229   -16.3617 H      21     m21     0.0166
   1173 H            6.8397    16.7539   -17.4570 H      21     m21     0.0192
   1174 C            9.1848    18.8916   -13.7510 C       6      m6     0.0098
   1175 H            8.9422    16.2580   -16.0563 H       6      m6     0.0209
   1176 C            9.9251    16.2155   -15.7846 C       6      m6    -0.0203
   1177 C           10.0109    18.7807   -14.8719 C       6      m6    -0.0016
   1178 C           10.0178   -19.9136   -15.7221 C       6      m6    -0.0160
   1179 C           10.6416    17.3171   -15.2028 C       6      m6     0.0015
   1180 H           10.9606    19.8868   -17.9663 H       6      m6     0.0173
   1181 C           11.8314    17.1693   -14.5723 C       6      m6     0.0015
   1182 C           12.2621    18.4098   -13.8055 C       6      m6    -0.0015
   1183 C           12.5382    15.3090   -18.1914 C       1      m1    -0.0115
   1184 C           12.6605    16.0303   -14.5252 C       6      m6    -0.0031
   1185 C           13.6549    18.6454   -14.2055 C       6      m6    -0.0014
   1186 C           13.9062    16.2188   -13.9559 C       6      m6    -0.0168
   1187 H           13.7366    19.7417   -15.9608 H       6      m6     0.0182
   1188 C           14.6225    17.3992   -14.1508 C       6      m6    -0.0021
   1189 C           14.9760    15.5534   -17.7005 C       1      m1     0.0045
   1190 H           14.3824    18.4354   -17.4280 H       6      m6     0.0196
   1191 H           15.4992    14.8703   -15.9719 H       1      m1     0.0159
   1192 H           15.4145   -19.8719   -17.3577 H       6      m6     0.0176
   1193 C           17.2616    17.3272   -14.3366 C       6      m6    -0.0199
   1194 H           17.2535    17.2838   -15.3645 H       6      m6     0.0191
   1195 H          -17.5097   -15.7307   -10.6503 H       6      m6     0.0151
   1196 C          -17.1024   -17.6204   -11.8009 C       6      m6     0.0041
   1197 C          -16.5740   -16.3438   -11.1901 C       6      m6    -0.0069
   1198 H          -15.3001   -15.2244   -12.8584 H       6      m6     0.0196
   1199 C          -16.1902   -18.7821   -12.1962 C       6      m6    -0.0156
   1200 C          -15.5240   -16.8655   -10.1198 C       6      m6    -0.0233
   1201 H          -15.3521   -17.7856    -9.6874 H       6      m6     0.0157
   1202 H          -15.3930   -19.2263   -11.5903 H       6      m6     0.0153
   1203 C          -14.8764   -15.6641    -9.4343 C       6      m6     0.0044
   1204 H          -12.8193   -17.0988   -11.9959 H      17     m17     0.0191
   1205 C          -12.0242   -16.3941   -11.9451 C      17     m17    -0.0195
   1206 H          -11.2063   -18.2898   -10.8608 H      17     m17     0.0139
   1207 H          -10.3376   -17.4870   -13.3539 H       2      m2     0.0186
   1208 C          -11.0781   -17.2438   -11.2203 C      17     m17    -0.0203
   1209 H          -10.3823   -19.5324   -11.7352 H       2      m2     0.0162
   1210 C           -9.7251   -16.6919   -11.0034 C      17     m17     0.0017
   1211 H           -9.0465   -18.2596    -9.5712 H      17     m17     0.0225
   1212 C           -9.0059   -17.3725    -9.9286 C      17     m17    -0.0267
   1213 H           -8.1207   -19.6459   -10.6320 H       2      m2     0.0192
   1214 H           -7.5215   -17.0679   -11.6155 H      17     m17     0.0211
   1215 C           -7.7028   -16.5391    -9.6488 C      17     m17     0.0008
   1216 H           -7.8959   -18.8021   -13.3120 H      17     m17     0.0192
   1217 C           -6.9867   -18.0325   -11.5403 C      17     m17    -0.0213
   1218 C           -6.8808   -19.0268   -12.6516 C      17     m17    -0.0154
   1219 C           -6.3786   -17.2869    -9.2937 C      17     m17    -0.0023
   1220 C           -6.1209   -18.1709   -10.4628 C      17     m17     0.0017
   1221 C           -4.6939   -15.8881   -12.9459 C      20     m20    -0.0183
   1222 C           -4.8811   -18.8089   -10.6676 C      17     m17    -0.0042
   1223 C           -4.6425   -19.7760   -11.8016 C      17     m17    -0.0029
   1224 C           -4.1840   -19.1586    -9.4038 C      17     m17     0.0042
   1225 H           -4.9735   -16.8739   -12.4896 H      20     m20     0.0201
   1226 C           -2.7916   -19.4843    -9.2795 C      17     m17    -0.0195
   1227 H           -2.6063   -16.7692   -11.1931 H       3      m3     0.0172
   1228 C           -2.3020   -19.9048   -10.5618 C      17     m17    -0.0187
   1229 C           -1.5781   -16.4847   -11.4003 C       3      m3    -0.0171
   1230 H           -1.2943    19.7109   -10.9033 H      17     m17     0.0125
   1231 H           -1.0018   -18.4885   -12.3418 H       3      m3     0.0138
   1232 C           -0.8233   -17.4597   -12.0608 C       3      m3    -0.0138
   1233 C            0.5317   -17.0128   -12.2879 C       3      m3    -0.0208
   1234 C            1.1036   -15.6738   -12.1173 C       3      m3     0.0034
   1235 H            0.7551   -17.3431   -13.2548 H       3      m3     0.0165
   1236 H            3.4249   -17.4670   -11.0985 H       6      m6     0.0187
   1237 C            4.1710   -18.2440   -10.9023 C       6      m6    -0.0235
   1238 C            4.2948   -18.5657    -9.4848 C       6      m6    -0.0034
   1239 H            5.0709   -16.6518   -13.1795 H       6      m6     0.0099
   1240 C            5.0497   -18.6856   -11.8779 C       6      m6     0.0043
   1241 C            5.3813   -17.9445   -12.9916 C       6      m6    -0.0163
   1242 C            6.0406   -19.6711   -11.1949 C       6      m6    -0.0034
   1243 C            6.3289   -15.8219    -9.8301 C       5      m5    -0.0197
   1244 H            6.0152   -16.6054   -10.4158 H       5      m5     0.0210
   1245 C            7.1632   -19.5757   -13.5151 C       6      m6     0.0030
   1246 H            8.2984   -15.5022   -11.8216 H       5      m5     0.0143
   1247 H            8.8027   -19.5321    -9.6639 H       6      m6     0.0153
   1248 H            9.6685   -16.2494   -12.3790 H       6      m6     0.0195
   1249 H            9.3106   -18.2591   -11.3236 H       6      m6     0.0140
   1250 C           10.2456   -16.4925   -13.1430 C       6      m6    -0.0232
   1251 C           10.0751   -18.5462   -12.2351 C       6      m6    -0.0138
   1252 H           10.0560   -17.3577    -9.7071 H       5      m5     0.0164
   1253 C           10.6983    19.8820   -12.1881 C       6      m6    -0.0187
   1254 C           10.6374   -17.8713   -13.1302 C       6      m6     0.0027
   1255 C           10.9460   -16.8860   -10.1067 C       5      m5    -0.0205
   1256 C           12.3394   -17.5314    -9.9827 C       5      m5     0.0048
   1257 H           12.7688   -16.5155   -12.3208 H       5      m5     0.0205
   1258 C           13.1617   -15.7926   -11.5337 C       5      m5    -0.0155
   1259 C           13.4481   -16.8953   -10.5379 C       5      m5    -0.0045
   1260 C           13.8099   -19.3275    -9.2384 C       5      m5    -0.0180
   1261 C           14.5709   -17.4574   -10.2099 C       5      m5     0.0073
   1262 C           14.8878   -18.4982    -9.5700 C       5      m5    -0.0183
   1263 H           15.3595   -18.3744   -12.4265 H       6      m6     0.0191
   1264 C           15.6905   -16.6326   -10.1487 C       5      m5    -0.0151
   1265 C           15.9857   -15.7493   -11.1106 C       5      m5    -0.0207
   1266 H           15.8362   -18.8405    -9.2573 H       5      m5     0.0172
   1267 C           16.0542   -18.9608   -11.9218 C       6      m6    -0.0188
   1268 H           16.7659   -16.9277    -9.6366 H       5      m5     0.0137
   1269 C           17.4871   -18.8229   -11.6338 C       6      m6     0.0031
   1270 H           17.8544   -16.6327   -12.4567 H       6      m6     0.0149
   1271 C           18.2895   -17.5696   -11.9934 C       6      m6    -0.0213
   1272 H          -17.1778   -14.4732   -12.7205 H       6      m6     0.0166
   1273 C          -16.2786   -15.0705   -12.0254 C       6      m6    -0.0275
   1274 H          -16.5230   -12.3458   -11.8532 H       6      m6     0.0166
   1275 C          -15.9573   -12.8052   -10.8894 C       6      m6    -0.0129
   1276 C          -15.4315   -14.0645   -11.2139 C       6      m6     0.0007
   1277 C          -15.5402   -11.7504   -10.0968 C       6      m6    -0.0201
   1278 C          -14.6666   -14.5393   -10.0524 C       6      m6     0.0004
   1279 C          -14.3508   -12.2097    -9.2958 C       6      m6     0.0047
   1280 C          -14.2684   -13.5068    -9.0178 C       6      m6     0.0016
   1281 H          -13.0857   -11.8809   -13.0094 H      17     m17     0.0159
   1282 C          -12.7756   -14.0441   -12.8085 C      17     m17    -0.0202
   1283 C          -12.4261   -12.7532   -12.6855 C      17     m17    -0.0059
   1284 C          -12.0490   -14.9952   -11.9706 C      17     m17     0.0072
   1285 C          -11.9669   -11.9773   -11.4758 C      17     m17    -0.0234
   1286 H          -12.2729   -11.0504   -11.2828 H      17     m17     0.0182
   1287 C          -10.9476   -14.4359   -11.2174 C      17     m17    -0.0015
   1288 C          -10.9234   -12.7787   -11.0671 C      17     m17     0.0131
   1289 C           -9.9818   -11.9957   -10.3733 C      17     m17    -0.0182
   1290 C           -9.9724   -15.2132   -10.5656 C      17     m17    -0.0009
   1291 C           -9.2563   -12.9728    -9.5969 C      17     m17    -0.0161
   1292 C           -9.0221   -14.5756    -9.5997 C      17     m17    -0.0079
   1293 H           -7.6398   -14.6000   -13.2461 H      19     m19     0.0205
   1294 C           -7.9502   -11.8068   -13.1405 C      19     m19    -0.0136
   1295 C           -7.5725   -15.1269    -9.6916 C      17     m17    -0.0223
   1296 H           -6.8254   -11.9943   -12.6645 H      19     m19     0.0161
   1297 H           -6.9029   -14.2792    -9.5682 H      17     m17     0.0164
   1298 C           -4.4673   -13.2012   -13.5536 C      20     m20    -0.0024
   1299 H           -5.0164   -12.9042   -10.9463 H      20     m20     0.0175
   1300 C           -4.0562   -12.8461   -11.2102 C      20     m20    -0.0261
   1301 C           -3.7862   -13.6931   -12.4058 C      20     m20     0.0059
   1302 C           -3.6503   -15.1601   -12.2292 C      20     m20    -0.0181
   1303 C           -3.7068   -11.4095   -11.5077 C      20     m20    -0.0125
   1304 C           -3.4006   -11.2348   -12.8169 C      20     m20    -0.0184
   1305 H           -3.1475   -15.3722   -11.2997 H      20     m20     0.0160
   1306 H           -2.7517   -14.4461   -10.2241 H       3      m3     0.0158
   1307 C           -1.7234   -14.0941   -10.2176 C       3      m3    -0.0180
   1308 C           -1.0168   -13.7497    -9.0786 C       3      m3    -0.0178
   1309 C           -0.9616   -15.0666   -10.9510 C       3      m3     0.0032
   1310 H            0.4462   -11.6158   -11.1747 H      13     m13     0.0205
   1311 C            0.3699   -13.5168    -9.3645 C       3      m3     0.0030
   1312 C            0.5009   -14.7623   -11.2333 C       3      m3     0.0008
   1313 C            1.1811   -13.7432   -10.4759 C       3      m3    -0.0041
   1314 C            2.3887   -15.0259   -12.6774 C       3      m3    -0.0176
   1315 C            2.5938   -14.0301   -10.3897 C       3      m3     0.0038
   1316 H            3.0878   -15.1362   -13.4749 H       3      m3     0.0165
   1317 C            3.1696   -13.0521    -9.5846 C       3      m3    -0.0145
   1318 C            3.1885   -14.2962   -11.8512 C       3      m3    -0.0166
   1319 H            4.3619   -13.8595   -11.8777 H       3      m3     0.0142
   1320 H            3.9321   -12.3692   -10.1751 H       3      m3     0.0160
   1321 H            7.0852   -13.6826   -12.6719 H       5      m5     0.0171
   1322 C            7.4105   -14.8221   -10.0362 C       5      m5     0.0059
   1323 C            7.3418   -13.6683    -9.4505 C       5      m5    -0.0028
   1324 C            7.4824   -13.1673   -13.4976 C       5      m5    -0.0205
   1325 C            8.4292   -14.9485   -10.8677 C       5      m5    -0.0254
   1326 H            8.5741   -11.7705   -12.2897 H       5      m5     0.0189
   1327 C            8.5931   -12.7141    -9.3821 C       5      m5     0.0007
   1328 C            8.3979   -12.0384   -13.3007 C       5      m5    -0.0175
   1329 C            9.6937   -14.6463   -10.3385 C       5      m5     0.0032
   1330 C            9.7430   -13.4572    -9.3569 C       5      m5    -0.0183
   1331 H            9.8655   -14.5010   -13.2210 H       6      m6     0.0189
   1332 C           10.7986   -15.5660   -10.6760 C       5      m5    -0.0044
   1333 H           11.9791   -12.6393   -11.8029 H       5      m5     0.0203
   1334 C           12.2097   -14.7349   -10.9957 C       5      m5     0.0034
   1335 C           12.5656   -13.5489   -11.6862 C       5      m5    -0.0216
   1336 C           13.9142   -13.1722   -11.7055 C       5      m5     0.0046
   1337 C           14.7215   -15.4167   -11.7180 C       5      m5     0.0065
   1338 C           14.6494   -11.9040   -11.5650 C       5      m5    -0.0058
   1339 C           15.0112   -14.1119   -12.1823 C       5      m5    -0.0248
   1340 H           16.1705   -12.7016   -13.7407 H       5      m5     0.0163
   1341 H           16.0024   -13.7207   -12.1562 H       5      m5     0.0153
   1342 H           16.7650   -12.5772   -10.8047 H       5      m5     0.0146
   1343 C           16.1185   -11.6520   -11.1018 C       5      m5    -0.0153
   1344 H           17.0104   -15.2414   -11.2564 H       5      m5     0.0114
   1345 H           17.6035   -13.8593   -13.4860 H       5      m5     0.0093
   1346 C          -18.1014    -6.9719   -12.0703 C       2      m2     0.0030
   1347 H          -17.6318    -8.9927   -12.7263 H       2      m2     0.0182
   1348 C          -16.9563    -8.0100   -12.3093 C       2      m2    -0.0151
   1349 C          -15.9170    -7.7025   -11.3770 C       2      m2    -0.0181
   1350 H          -15.3091   -10.7956   -10.4629 H       6      m6     0.0151
   1351 H          -14.9911    -8.3208   -11.3280 H       2      m2     0.0142
   1352 H          -13.7398   -10.5271    -9.5420 H       6      m6     0.0151
   1353 C          -11.9269    -7.1633    -9.1689 C      32     m32     0.0083
   1354 H          -12.0955    -8.1035   -13.0785 H      19     m19     0.0127
   1355 C          -11.4325    -8.8929   -13.3566 C      19     m19    -0.0164
   1356 C          -10.4596    -9.4851   -12.7201 C      19     m19    -0.0206
   1357 H           -9.9476   -10.9016   -10.0171 H      17     m17     0.0169
   1358 C           -9.8888    -6.5821    -9.5587 C      32     m32     0.0038
   1359 H          -10.7422    -9.3144   -11.7516 H      19     m19     0.0179
   1360 C           -9.6915   -10.5354   -13.3676 C      19     m19     0.0083
   1361 C           -8.7067   -10.8636   -12.3512 C      19     m19    -0.0187
   1362 H           -8.2843   -10.2178   -11.5935 H      19     m19     0.0180
   1363 C           -7.5984    -6.6182   -10.3355 C      32     m32    -0.0192
   1364 C           -7.6757    -7.9414    -9.4228 C      32     m32     0.0017
   1365 C           -6.4198    -8.8256    -9.7026 C      32     m32    -0.0175
   1366 H           -5.9507    -8.9583   -10.7172 H      32     m32     0.0156
   1367 H           -4.5176    -7.0494   -12.1404 H       3      m3     0.0178
   1368 H           -3.7167   -10.7581   -10.4647 H      20     m20     0.0127
   1369 C           -3.2905    -7.3274    -9.9853 C       3      m3     0.0022
   1370 H           -3.1393   -10.2956   -13.2054 H      20     m20     0.0158
   1371 H           -2.3693    -7.9180   -12.1652 H       3      m3     0.0166
   1372 C           -2.7669    -8.2072   -11.0390 C       3      m3    -0.0165
   1373 C           -2.2173    -9.1902   -10.3126 C       3      m3    -0.0167
   1374 H           -1.4638    -9.8671   -10.9402 H       3      m3     0.0197
   1375 C            0.2509   -10.5453   -11.6174 C      13     m13    -0.0246
   1376 C            0.5850    -9.4569   -10.7687 C      13     m13     0.0031
   1377 C            0.6463    -8.1828   -11.7796 C      13     m13    -0.0028
   1378 C            1.1108    -6.7967   -11.5086 C      13     m13     0.0014
   1379 C            1.3787    -8.3252   -13.0137 C      13     m13     0.0026
   1380 C            1.5297    -9.5302    -9.6566 C      13     m13    -0.0207
   1381 C            1.6480    -6.8825   -10.1381 C      13     m13     0.0040
   1382 C            2.0358    -8.1566    -9.3130 C      13     m13    -0.0163
   1383 C            1.9494    -9.6949   -13.4631 C      13     m13    -0.0193
   1384 H            2.5853    -9.9548   -12.5932 H      13     m13     0.0201
   1385 C            5.3845    -7.3735   -13.5813 C      14     m14    -0.0170
   1386 C            6.1664    -8.1647   -13.0611 C      14     m14    -0.0154
   1387 H            6.1960    -9.2339   -13.1705 H      14     m14     0.0183
   1388 C            6.7996    -7.6315   -11.6666 C      14     m14    -0.0007
   1389 H            7.6574    -8.9256   -10.8102 H      14     m14     0.0183
   1390 C            7.5794    -8.0079   -10.4356 C      14     m14    -0.0182
   1391 C            8.6799    -7.5464    -9.7518 C      14     m14    -0.0154
   1392 H            9.1830    -7.8611    -8.8135 H      14     m14     0.0124
   1393 H            9.4388    -9.0097   -11.7246 H       5      m5     0.0212
   1394 C           10.2720    -9.4559   -12.0381 C       5      m5    -0.0271
   1395 C           10.6460    -9.6258   -13.4045 C       5      m5     0.0041
   1396 H           10.9260    -9.1253    -9.4719 H       5      m5     0.0136
   1397 C           11.5166    -9.5340   -11.2827 C       5      m5     0.0039
   1398 C           11.8697    -9.6356    -9.8745 C       5      m5    -0.0194
   1399 C           12.6839   -10.1647   -11.9648 C       5      m5    -0.0040
   1400 C           13.0203    -9.6847   -13.3304 C       5      m5     0.0053
   1401 C           13.3189    -9.3165    -9.4409 C       5      m5    -0.0230
   1402 C           14.1146   -10.6004   -11.4955 C       5      m5    -0.0042
   1403 C           14.3195    -9.5313   -10.3314 C       5      m5     0.0082
   1404 H           15.1783   -10.2131   -13.1500 H       5      m5     0.0228
   1405 C           15.6998    -9.2755    -9.7527 C       5      m5    -0.0363
   1406 H           15.6888    -8.5032    -8.9820 H       5      m5     0.0211
   1407 C           16.4911   -10.6049   -10.2331 C       5      m5    -0.0161
   1408 H           16.9216    -8.3076   -12.0617 H       2      m2     0.0201
   1409 C           17.3497    -7.1809   -12.1901 C       2      m2    -0.0206
   1410 C          -18.0958    -3.0626   -11.4712 C       2      m2    -0.0200
   1411 C          -17.5679    -5.5857   -11.9255 C       2      m2    -0.0021
   1412 C          -16.7642    -2.5545   -11.5285 C       2      m2    -0.0207
   1413 C          -16.2221    -5.2326   -11.6331 C       2      m2    -0.0017
   1414 C          -16.0056    -3.7407   -11.5240 C       2      m2     0.0031
   1415 C          -15.4300    -6.1984   -11.2265 C       2      m2    -0.0028
   1416 C          -14.5649    -3.2800   -11.8720 C       2      m2    -0.0140
   1417 H          -15.0143    -3.0895   -13.0184 H       2      m2     0.0180
   1418 C          -14.2888    -5.5390   -10.4644 C       2      m2    -0.0048
   1419 C          -13.6682    -4.4260   -11.1634 C       2      m2    -0.0168
   1420 H          -12.6241    -4.4993   -11.2949 H       2      m2     0.0152
   1421 H          -11.2578    -2.8493   -11.5377 H       2      m2     0.0204
   1422 H          -11.6935    -5.9774   -10.7193 H      32     m32     0.0183
   1423 C          -11.3910    -6.3998    -9.8987 C      32     m32    -0.0295
   1424 C          -10.2423    -3.1415    -9.5785 C       2      m2     0.0062
   1425 C          -10.3278    -3.1904   -11.1476 C       2      m2    -0.0383
   1426 H          -10.0664    -4.2359   -11.6481 H       2      m2     0.0153
   1427 H           -9.9620    -2.1125   -13.3730 H       2      m2     0.0161
   1428 H           -9.3321    -5.9580   -11.6243 H      32     m32     0.0135
   1429 C           -9.1125    -2.3838   -11.5367 C       2      m2     0.0067
   1430 C           -9.0613    -6.3448   -10.5389 C      32     m32    -0.0203
   1431 H           -8.9506    -4.6928    -9.6389 H       2      m2     0.0232
   1432 C           -7.9503    -3.1927    -9.4756 C       2      m2     0.0026
   1433 H           -6.5706    -6.0495   -10.2467 H      32     m32     0.0182
   1434 C           -4.0461    -3.3374   -12.4354 C       3      m3     0.0070
   1435 C           -3.6711    -6.0076    -9.9562 C       3      m3     0.0006
   1436 C           -3.8921    -6.1899   -12.3733 C       3      m3    -0.0229
   1437 C           -3.6490    -4.0008   -11.1882 C       3      m3    -0.0003
   1438 C           -3.8794    -5.3251   -13.5215 C       3      m3    -0.0115
   1439 C           -3.3570    -3.1442    -9.8833 C       3      m3    -0.0050
   1440 C           -3.3743    -5.4134   -11.1999 C       3      m3     0.0010
   1441 C            1.5129    -5.5501   -12.4935 C      13     m13     0.0026
   1442 C            1.7202    -4.4655   -11.7244 C      13     m13    -0.0150
   1443 C            1.7225    -5.5800    -9.4889 C      13     m13    -0.0175
   1444 C            1.9071    -4.3119   -10.2136 C      13     m13    -0.0159
   1445 H            1.8819    -3.5049   -12.2878 H      13     m13     0.0129
   1446 H            2.2931    -3.4942    -9.4881 H      13     m13     0.0197
   1447 H            3.7288    -2.8146   -13.3947 H      14     m14     0.0088
   1448 H            4.2493    -1.6729   -10.1169 H       3      m3     0.0157
   1449 C            4.2326    -4.9887   -13.7049 C      14     m14    -0.0243
   1450 C            4.5297    -3.6731   -13.2654 C      14     m14    -0.0129
   1451 H            4.7452    -2.8000   -11.4572 H      14     m14     0.0143
   1452 C            5.2542    -5.8136   -13.0633 C      14     m14     0.0052
   1453 C            5.5897    -3.2118   -12.2406 C      14     m14    -0.0143
   1454 H            6.2684    -3.5818    -9.2831 H       3      m3     0.0213
   1455 C            6.4705    -5.3931   -12.3636 C      14     m14    -0.0013
   1456 C            6.8545    -3.9189   -12.1472 C      14     m14     0.0016
   1457 C            7.3738    -6.2996   -11.8473 C      14     m14    -0.0010
   1458 C            7.9873    -3.3313   -11.6571 C      14     m14    -0.0010
   1459 C            8.0629    -5.5728   -10.8829 C      14     m14     0.0073
   1460 C            8.6406    -4.2429   -10.8012 C      14     m14    -0.0205
   1461 C            8.9264    -6.1861    -9.9205 C      14     m14    -0.0191
   1462 H            9.3956    -3.6671   -10.0618 H      14     m14     0.0148
   1463 H            9.7695    -5.7945    -9.3650 H      14     m14     0.0134
   1464 H           11.1319    -2.2321   -11.5050 H       2      m2     0.0197
   1465 H           12.1858    -4.5659   -10.9287 H       2      m2     0.0152
   1466 C           12.1863    -2.5947   -11.8486 C       2      m2    -0.0163
   1467 C           12.7991    -3.7230   -11.4710 C       2      m2    -0.0125
   1468 H           14.4951    -6.1709   -10.8799 H       2      m2     0.0135
   1469 C           14.0251    -3.5606   -13.2915 C       2      m2    -0.0027
   1470 C           13.8677    -4.5352   -12.1573 C       2      m2     0.0013
   1471 H           14.0297    -4.9936    -9.5676 H      14     m14     0.0146
   1472 C           14.2455    -5.7751   -12.0470 C       2      m2    -0.0175
   1473 H           15.1417    -2.2886    -9.5850 H      14     m14     0.0167
   1474 C           15.2694    -5.7898   -12.9846 C       2      m2     0.0037
   1475 H           16.4691    -4.0424   -12.6778 H       2      m2     0.0229
   1476 C           16.6061    -6.1504   -12.6591 C       2      m2     0.0053
   1477 H           17.5031    -6.9366    -9.9085 H       2      m2     0.0201
   1478 C           17.0574    -4.8075   -12.3703 C       2      m2    -0.0241
   1479 C           18.4152    -4.3625   -12.0198 C       2      m2     0.0033
   1480 C          -18.2828     2.1609    -9.9969 C       2      m2    -0.0062
   1481 C          -17.3999     1.1879    -9.0113 C       2      m2    -0.0011
   1482 H          -17.3178    -0.5033    -9.4165 H       2      m2     0.0177
   1483 C          -16.5162     0.2450    -9.5638 C       2      m2    -0.0206
   1484 H          -16.1435    -1.7032   -11.3918 H       2      m2     0.0210
   1485 C          -15.1519     0.0099    -9.1354 C       2      m2    -0.0048
   1486 H          -14.3389     1.7127    -9.5700 H       2      m2     0.0216
   1487 C          -13.7042     0.9418   -11.9309 C       2      m2     0.0011
   1488 C          -13.8477    -0.0113   -12.8378 C       2      m2    -0.0159
   1489 C          -13.7842     1.7322   -10.5188 C       2      m2    -0.0324
   1490 C          -13.7766    -0.4513    -9.4550 C       2      m2    -0.0029
   1491 C          -13.7013    -2.0580   -11.6608 C       2      m2    -0.0010
   1492 C          -13.2008    -1.5553   -10.3363 C       2      m2     0.0008
   1493 C          -13.3858    -1.3469   -12.8799 C       2      m2    -0.0216
   1494 C          -12.4554     0.1511    -9.5191 C       2      m2    -0.0028
   1495 C          -12.3061     1.4648   -10.2493 C       2      m2    -0.0003
   1496 C          -11.7564    -0.9488   -10.4780 C       2      m2    -0.0238
   1497 H          -11.3526    -0.8799   -11.3501 H       2      m2     0.0201
   1498 C          -10.9292    -1.8053    -9.2862 C       2      m2     0.0021
   1499 H          -11.0675     0.4072   -12.7229 H       2      m2     0.0155
   1500 C          -11.0828     2.1783   -10.4510 C       2      m2     0.0026
   1501 C          -11.0732     1.3925   -13.3357 C       2      m2    -0.0161
   1502 H          -10.0812     0.5469    -9.8093 H       2      m2     0.0295
   1503 C           -9.7156     1.3621   -10.2180 C       2      m2    -0.0537
   1504 H           -8.8246     1.7835    -9.5709 H       2      m2     0.0270
   1505 C           -9.0594    -2.1164   -12.8267 C       2      m2    -0.0235
   1506 H           -9.3695     1.1571   -11.3683 H       2      m2     0.0219
   1507 C           -8.2876    -2.0914   -10.4535 C       2      m2    -0.0030
   1508 C           -8.4191    -0.9918   -13.1850 C       2      m2    -0.0049
   1509 C           -7.3994    -0.4819   -12.2671 C       2      m2    -0.0015
   1510 C           -7.4253    -0.9809   -10.8961 C       2      m2     0.0006
   1511 H           -6.9757     1.6949   -12.5364 H       2      m2     0.0142
   1512 C           -7.0227     0.9588   -11.7964 C       2      m2    -0.0234
   1513 C           -6.6993    -0.9660    -9.5535 C       2      m2     0.0052
   1514 C           -6.3187     1.2824   -10.6557 C       2      m2    -0.0123
   1515 C           -5.9517     0.2314    -9.5078 C       2      m2    -0.0202
   1516 H           -4.8974    -0.3950    -9.2073 H       2      m2     0.0186
   1517 C           -3.9255    -1.9929   -12.3678 C       3      m3    -0.0169
   1518 H           -4.5216    -1.4178   -13.1776 H       3      m3     0.0175
   1519 C           -3.2046    -1.2839   -11.3641 C       3      m3    -0.0137
   1520 H           -2.7781    -0.1933   -11.9760 H       3      m3     0.0137
   1521 C           -2.9695    -1.8370   -10.1518 C       3      m3     0.0008
   1522 H           -2.9410     1.4988   -11.1416 H       7      m7     0.0147
   1523 H           -2.5281     0.8395    -9.1223 H       3      m3     0.0182
   1524 H            0.3468     2.0727   -12.8345 H       7      m7     0.0161
   1525 H            1.6579    -1.1415    -9.6269 H       3      m3     0.0125
   1526 C            3.8194    -2.0365    -9.2326 C       3      m3    -0.0219
   1527 H            4.0478     1.2617   -11.9753 H       2      m2     0.0111
   1528 C            4.5572     1.7054   -13.0861 C       2      m2    -0.0146
   1529 H            5.3457     2.1594   -10.5308 H       2      m2     0.0143
   1530 C            7.1328    -1.0493   -13.3096 C      14     m14     0.0084
   1531 C            7.6860    -1.1577   -12.2764 C      14     m14    -0.0084
   1532 C            8.1834    -1.6990   -11.2466 C      14     m14    -0.0001
   1533 H            9.9028    -0.5748   -12.2375 H      14     m14     0.0156
   1534 C            9.6059    -1.3124   -11.2028 C      14     m14    -0.0168
   1535 C           10.4026    -0.0867   -10.4688 C      14     m14    -0.0245
   1536 H           10.6258     0.7451   -11.1003 H      14     m14     0.0183
   1537 C           11.2719    -0.3643    -9.3069 C      14     m14     0.0061
   1538 C           12.7000    -0.0525    -9.4921 C      14     m14    -0.0160
   1539 H           12.6655     0.3026   -10.4770 H      14     m14     0.0176
   1540 H           12.9918     0.7855   -12.0687 H       2      m2     0.0121
   1541 C           13.1985    -1.6248   -12.4563 C       2      m2     0.0032
   1542 C           13.5985    -0.1427   -12.3882 C       2      m2    -0.0194
   1543 C           14.0795    -2.1537   -13.5470 C       2      m2    -0.0002
   1544 C           14.4315     0.3585   -13.5387 C       2      m2    -0.0129
   1545 H           14.9152    -0.4257    -8.9996 H      14     m14     0.0150
   1546 H           14.9597     1.2941   -13.3303 H       2      m2     0.0117
   1547 H           18.0042    -2.5181   -11.1446 H       2      m2     0.0180
   1548 C          -18.1271     4.3676   -11.2596 C       2      m2     0.0007
   1549 C          -17.7862     5.5309   -11.8537 C       2      m2     0.0000
   1550 C          -17.4978     3.1353   -10.6626 C       2      m2    -0.0020
   1551 C          -16.2524     3.9038   -10.2718 C       2      m2    -0.0150
   1552 C          -16.5122     5.9021   -11.4749 C       2      m2    -0.0120
   1553 H          -15.6102     3.0069    -9.9984 H       2      m2     0.0158
   1554 C          -15.5973     5.1035   -10.8787 C       2      m2    -0.0153
   1555 H          -15.1547     6.3904   -13.7300 H       9      m9     0.0150
   1556 H          -14.7286     4.8440   -10.1794 H       2      m2     0.0175
   1557 H          -13.8414     2.8377   -11.1089 H       2      m2     0.0171
   1558 C          -12.1841     5.0229    -9.5162 C       2      m2     0.0023
   1559 C          -11.8000     4.7453   -11.0155 C       2      m2    -0.0026
   1560 C          -11.2804     2.7260   -12.7281 C       2      m2     0.0009
   1561 C          -11.4913     3.3280   -11.3802 C       2      m2    -0.0043
   1562 C          -10.8434     5.4552   -11.7143 C       2      m2    -0.0188
   1563 C          -10.5259     4.9061   -13.0987 C       2      m2     0.0042
   1564 H           -7.7492     5.7952   -11.4221 H       2      m2     0.0157
   1565 C           -6.9863     6.5060   -11.1549 C       2      m2    -0.0174
   1566 H           -6.3768     2.5491   -10.7429 H       2      m2     0.0123
   1567 H           -4.8378     1.6419   -12.7207 H       7      m7     0.0162
   1568 C           -2.5168     2.4733   -11.6022 C       7      m7    -0.0214
   1569 C           -2.2931     2.4555   -13.1205 C       7      m7    -0.0021
   1570 H           -2.3033     2.4595    -8.8142 H       7      m7     0.0169
   1571 C           -1.7731     3.4978   -10.7978 C       7      m7     0.0046
   1572 C           -1.6427     3.2042    -9.3445 C       7      m7    -0.0149
   1573 C           -1.2501     3.4782   -13.4718 C       7      m7     0.0040
   1574 C           -1.1467     4.7244   -12.8604 C       7      m7    -0.0036
   1575 C           -0.8394     4.3973   -11.4618 C       7      m7    -0.0033
   1576 C           -0.4249     5.5672   -10.5826 C       7      m7     0.0028
   1577 C            0.3060     4.7454    -9.4935 C       7      m7    -0.0012
   1578 C            0.2748     2.9900   -13.4470 C       7      m7    -0.0161
   1579 H            2.3251     1.9621    -9.3780 H       3      m3     0.0158
   1580 H            2.0377     4.5373   -11.6505 H       7      m7     0.0203
   1581 C            2.2239     6.1979   -10.2187 C       7      m7     0.0023
   1582 C            2.6735     5.2486   -11.1781 C       7      m7    -0.0166
   1583 C            3.5338     5.7266   -12.2562 C       7      m7    -0.0157
   1584 H            3.2746     5.5795   -13.3723 H       7      m7     0.0147
   1585 C            4.6287     6.6090   -12.0565 C       7      m7     0.0033
   1586 C            5.7610     2.3647   -12.8563 C       2      m2     0.0074
   1587 C            5.8581     2.5644   -11.5001 C       2      m2    -0.0190
   1588 C            7.0822     3.5275   -11.3462 C       2      m2    -0.0118
   1589 H            7.2696     4.0688   -10.1846 H       2      m2     0.0167
   1590 C            8.0265     3.6138   -12.2831 C       2      m2     0.0024
   1591 C            9.4408     4.3231   -12.2466 C       2      m2     0.0016
   1592 C            9.6249     6.2578   -10.3119 C       2      m2     0.0029
   1593 C            9.9337     5.0628   -11.1042 C       2      m2    -0.0051
   1594 C           10.3362     3.4034   -12.9647 C       2      m2    -0.0163
   1595 C           10.7951     3.7789   -10.7262 C       2      m2    -0.0042
   1596 H           11.3250     4.0355   -12.6300 H       2      m2     0.0155
   1597 C           11.8572     3.0897   -10.3003 C       2      m2    -0.0192
   1598 H           12.3285     6.7371   -10.6666 H       2      m2     0.0192
   1599 H           12.4457     3.0809   -11.3815 H       2      m2     0.0106
   1600 C           13.7352     3.9586    -9.1615 C       2      m2    -0.0160
   1601 H           14.1668     5.0706   -14.0971 H       2      m2     0.0170
   1602 H           14.0481     4.3112   -10.1971 H       2      m2     0.0131
   1603 H           14.3338     5.3518   -11.5050 H       2      m2     0.0137
   1604 C           15.1853     6.0505   -11.5628 C       2      m2    -0.0219
   1605 H           15.3850     3.7488   -11.0854 H       2      m2     0.0129
   1606 C           16.5720     3.2657   -10.9766 C       2      m2    -0.0304
   1607 H           16.9215     2.8559   -12.0519 H       2      m2     0.0157
   1608 C           16.6165     5.9124   -11.4062 C       2      m2     0.0027
   1609 C           17.1365     2.4880    -9.7969 C       2      m2     0.0077
   1610 C           17.3178     4.5836   -11.2777 C       2      m2    -0.0044
   1611 H           17.3342     4.0719   -13.6260 H       1      m1     0.0160
   1612 C          -18.2251     6.6774   -12.7350 C       2      m2    -0.0009
   1613 C          -18.0666     9.7059    -9.2274 C       2      m2    -0.0170
   1614 H          -17.6267    10.5287   -10.0439 H       2      m2     0.0116
   1615 C          -17.3419     8.5043    -9.1407 C       2      m2     0.0062
   1616 H          -16.2494     7.6035   -13.6784 H       2      m2     0.0145
   1617 H          -15.9983     6.9218   -11.5756 H       2      m2     0.0171
   1618 C          -15.8866     8.9042    -9.4182 C       2      m2    -0.0207
   1619 H          -15.9218     9.9492    -9.7572 H       2      m2     0.0143
   1620 H          -13.8509     8.1598    -9.1283 H       2      m2     0.0152
   1621 H          -11.7966     7.5470    -9.2505 H       2      m2     0.0146
   1622 H          -11.3576     9.6080   -11.8920 H       2      m2     0.0137
   1623 H          -10.9260     6.6345   -11.5026 H       2      m2     0.0151
   1624 C          -10.4195    10.1154   -12.3997 C       2      m2    -0.0122
   1625 H           -9.7557     8.0603   -13.0382 H       2      m2     0.0155
   1626 C           -9.6110     9.1980   -12.9470 C       2      m2    -0.0155
   1627 H           -8.8469     6.2677   -13.2845 H       2      m2     0.0175
   1628 C           -6.8813     6.9651    -9.6962 C       2      m2    -0.0025
   1629 H           -6.0654     7.0246   -13.0780 H       2      m2     0.0149
   1630 C           -6.3991     8.2988    -9.4474 C       2      m2     0.0004
   1631 C           -6.1599     7.1170   -11.9882 C       2      m2    -0.0182
   1632 C           -5.5170     8.2962   -11.6832 C       2      m2     0.0043
   1633 C           -5.6083     8.8140   -10.3862 C       2      m2    -0.0042
   1634 C           -5.1327    10.2408   -10.7594 C       2      m2    -0.0005
   1635 C           -4.8749    10.8532    -9.3637 C       2      m2    -0.0026
   1636 C           -4.6946    10.7915   -11.9065 C       2      m2     0.0006
   1637 C           -4.3175     8.3333   -12.8041 C       2      m2    -0.0371
   1638 C           -4.1094     9.8393   -12.8484 C       2      m2    -0.0017
   1639 H           -3.5577     8.0500   -12.1004 H       2      m2     0.0203
   1640 H           -1.9066     7.2544   -10.6535 H       7      m7     0.0174
   1641 C           -0.9367     6.8818   -10.2948 C       7      m7    -0.0194
   1642 H           -1.1480    10.0838   -12.9589 H       7      m7     0.0175
   1643 C           -0.4620    10.2211   -12.2358 C       7      m7    -0.0173
   1644 C           -0.1228     9.2822   -10.3016 C       7      m7     0.0009
   1645 C           -0.3444     7.9840    -9.5926 C       7      m7    -0.0009
   1646 C            0.0712    10.4729    -9.4905 C       7      m7    -0.0023
   1647 C            0.3479     9.2129   -11.7115 C       7      m7    -0.0172
   1648 H            0.3626     8.1234   -12.0157 H       7      m7     0.0187
   1649 H            3.4687    10.0921   -10.5321 H       7      m7     0.0186
   1650 C            3.2489     7.1233    -9.9444 C       7      m7     0.0018
   1651 C            4.2790     9.5924    -9.8731 C       7      m7    -0.0197
   1652 C            4.4657     7.4441   -10.8666 C       7      m7    -0.0012
   1653 C            4.7576     8.9275   -10.9879 C       7      m7     0.0024
   1654 C            5.0545     7.4258   -13.4271 C       7      m7    -0.0185
   1655 C            5.4367     8.6334   -13.3219 C       7      m7    -0.0146
   1656 C            5.4834     9.4011   -12.0328 C       7      m7    -0.0235
   1657 H            5.6375    10.4513   -12.1179 H       7      m7     0.0149
   1658 H            7.0260     8.1177    -9.3496 H       2      m2     0.0180
   1659 C            7.7503     7.4139    -9.3436 C       2      m2    -0.0206
   1660 H            8.1455     8.5935   -13.3445 H       2      m2     0.0139
   1661 H            8.1318     7.5994   -11.5216 H       2      m2     0.0181
   1662 C            8.3875     6.9195   -10.6680 C       2      m2    -0.0143
   1663 C            8.8537     7.7786   -13.8115 C       2      m2    -0.0190
   1664 H           10.0892     9.7380   -12.1635 H       2      m2     0.0149
   1665 C           10.1852     7.9649   -13.1512 C       2      m2     0.0021
   1666 C           10.4789     7.1876    -9.4834 C       2      m2     0.0005
   1667 C           10.6486     9.3335   -13.1126 C       2      m2    -0.0182
   1668 C           11.3861     7.2322   -13.5639 C       2      m2    -0.0014
   1669 C           11.7369    10.1400   -13.5740 C       2      m2    -0.0018
   1670 C           11.8235     6.8874    -9.6737 C       2      m2    -0.0114
   1671 H           13.0341    10.1386   -10.2443 H       2      m2     0.0211
   1672 C           13.7941     9.7013   -10.7624 C       2      m2    -0.0213
   1673 C           14.1296     8.4241   -11.0091 C       2      m2    -0.0015
   1674 C           14.5083    10.4690   -11.9363 C       2      m2    -0.0004
   1675 C           14.7465     7.5350   -11.5417 C       2      m2     0.0007
   1676 C           15.4026     9.6606   -12.6837 C       2      m2     0.0043
   1677 C           15.6893     8.2280   -12.3786 C       2      m2     0.0019
   1678 C           16.3355    10.5388   -13.4117 C       2      m2    -0.0237
   1679 C           16.8109     7.9376   -13.1707 C       2      m2     0.0006
   1680 C           17.2681     6.7327   -12.6201 C       2      m2    -0.0015
   1681 H          -17.4772    11.4133   -12.4217 H       2      m2     0.0158
   1682 C          -17.5887    11.3757   -13.3692 C       2      m2    -0.0175
   1683 H          -15.7822    11.5183   -12.6918 H       2      m2     0.0161
   1684 H          -14.9693    13.1349   -11.5519 H       2      m2     0.0148
   1685 C          -13.8939    12.7080   -11.4501 C       2      m2    -0.0180
   1686 H          -13.4110    13.2113    -9.4935 H       2      m2     0.0145
   1687 C          -13.3615    13.6535   -10.5336 C       2      m2    -0.0158
   1688 C          -12.8578    11.7514   -12.1287 C       2      m2    -0.0035
   1689 C          -13.1653    11.8446   -13.6737 C       2      m2    -0.0039
   1690 C          -12.4868    14.6439   -11.1958 C       2      m2    -0.0129
   1691 C          -11.5842    12.3619   -11.8202 C       2      m2    -0.0040
   1692 C          -11.2651    15.5396   -10.3346 C       2      m2     0.0028
   1693 H          -10.9864    12.5817    -9.6681 H       2      m2     0.0166
   1694 C          -11.4991    13.8321   -11.9391 C       2      m2     0.0054
   1695 C          -10.3215    11.6398   -12.0633 C       2      m2    -0.0013
   1696 C          -10.2483    14.6939   -12.4166 C       2      m2    -0.0214
   1697 C          -10.2350    13.4637    -9.6774 C       2      m2    -0.0108
   1698 C          -10.2769    14.8395    -9.4922 C       2      m2     0.0029
   1699 C           -9.8771    13.6796   -13.4579 C       2      m2    -0.0166
   1700 C           -9.9210    12.1885   -13.3302 C       2      m2     0.0053
   1701 H           -9.1585    11.4134    -9.2832 H       2      m2     0.0162
   1702 C           -8.7995    15.4272    -8.8666 C       2      m2     0.0012
   1703 C           -9.1510    12.5380    -9.3104 C       2      m2    -0.0143
   1704 H           -5.1182    13.1320   -10.8466 H       2      m2     0.0190
   1705 C           -4.4406    12.2329   -12.4819 C       2      m2    -0.0033
   1706 C           -4.0273    12.8083   -11.0127 C       2      m2    -0.0280
   1707 C           -3.9251    11.9756    -9.6716 C       2      m2    -0.0315
   1708 H           -3.4913    13.7535   -11.2228 H       2      m2     0.0160
   1709 H           -3.0390    11.3322    -9.5669 H       2      m2     0.0216
   1710 H           -1.1182    13.7729   -13.2816 H       4      m4     0.0202
   1711 C            0.0057    11.7439   -10.2412 C       7      m7     0.0017
   1712 C            0.1693    11.3764   -11.6754 C       7      m7    -0.0160
   1713 C            0.1388    13.0140    -9.5544 C       7      m7    -0.0216
   1714 H            0.0646    13.9065   -10.3854 H       7      m7     0.0148
   1715 H            1.2682    11.6636   -11.9861 H       7      m7     0.0205
   1716 H            1.8970    14.0959   -10.0363 H       4      m4     0.0164
   1717 C            2.4783    14.9308   -12.9453 C       4      m4     0.0005
   1718 C            2.3768    12.0769   -13.2807 C       4      m4    -0.0233
   1719 C            2.5729    14.4861   -10.8477 C       4      m4    -0.0202
   1720 C            2.9414    13.9681   -12.2239 C       4      m4     0.0072
   1721 C            3.3197    12.7197   -12.2779 C       4      m4    -0.0195
   1722 H            3.8323    12.4343   -11.2644 H       4      m4     0.0144
   1723 C            4.9638    15.0531   -12.1253 C      21     m21    -0.0172
   1724 C            5.4740    14.7650   -13.5448 C      21     m21     0.0071
   1725 H            5.0375    14.4771   -11.3386 H      21     m21     0.0190
   1726 C            6.3710    13.6434   -13.4976 C      21     m21    -0.0181
   1727 H            6.6662    13.1589   -12.5842 H      21     m21     0.0136
   1728 H            8.9496    15.3904   -10.6037 H       2      m2     0.0141
   1729 H            8.6905    13.3335   -11.5536 H       2      m2     0.0154
   1730 C            9.6595    13.6879   -11.7242 C       2      m2    -0.0210
   1731 C            9.8604    14.9267   -11.1794 C       2      m2    -0.0158
   1732 H           10.1967    11.7300   -12.7518 H       2      m2     0.0163
   1733 C           11.0677    13.1531   -11.8506 C       2      m2     0.0055
   1734 C           11.2378    12.0788   -12.5631 C       2      m2    -0.0218
   1735 C           12.3439    11.3751   -13.0698 C       2      m2    -0.0001
   1736 C           12.4232    13.5279   -11.5502 C       2      m2    -0.0027
   1737 C           12.4733    14.8571   -10.9688 C       2      m2    -0.0030
   1738 C           13.6690    12.8044   -11.7296 C       2      m2     0.0020
   1739 C           13.6482    11.4952   -12.3527 C       2      m2    -0.0065
   1740 C           14.7804    14.5829   -10.7060 C       2      m2    -0.0167
   1741 C           14.9010    13.2096   -11.2649 C       2      m2    -0.0194
   1742 H           15.2985    13.0839    -8.9816 H      15     m15     0.0182
   1743 H           15.6800    15.3178   -10.3297 H       2      m2     0.0147
   1744 H           15.9196    12.6202   -11.3177 H       2      m2     0.0135
   1745 H           16.1116    11.6506   -13.4644 H       2      m2     0.0133
   1746 H           17.3531    14.3284   -10.8711 H      26     m26     0.0129
   1747 C           17.6527    14.7746    -9.8740 C      26     m26    -0.0211
   1748 C           18.3452    19.8758   -11.8390 C       6      m6    -0.0021
   1749 C          -18.2212    17.5418   -12.6919 C       6      m6     0.0061
   1750 H          -17.4880    18.7259    -9.5146 H      26     m26     0.0203
   1751 C          -17.0803   -19.8281   -11.9065 C       6      m6     0.0013
   1752 C          -16.8496    17.4064   -12.1685 C       6      m6    -0.0182
   1753 H          -16.0148    16.7444   -12.4227 H       6      m6     0.0152
   1754 C          -16.2864    18.6294   -11.9974 C       6      m6    -0.0162
   1755 H          -15.2189    18.6616   -11.5639 H       6      m6     0.0124
   1756 H          -13.1088    15.3837   -12.0486 H       2      m2     0.0137
   1757 H          -11.6509    17.7242    -9.8568 H       2      m2     0.0194
   1758 C          -11.1891    16.8210   -10.0324 C       2      m2    -0.0240
   1759 H          -10.5215    15.5901   -12.6072 H       2      m2     0.0196
   1760 C          -10.1881    19.7627   -12.6774 C       2      m2    -0.0252
   1761 C           -9.6080    17.1197   -10.3655 C       2      m2     0.0013
   1762 C           -9.6334    18.3019   -12.6029 C       2      m2     0.0035
   1763 C           -9.2228    17.2925   -13.5272 C       2      m2    -0.0243
   1764 C           -9.1040    18.2063   -11.1831 C       2      m2    -0.0034
   1765 H           -8.9999    16.1961   -13.1311 H       2      m2     0.0179
   1766 C           -8.6093    16.7194    -9.3691 C       2      m2    -0.0012
   1767 C           -8.0845    19.0573   -10.5156 C       2      m2    -0.0111
   1768 C           -7.2270    17.4408    -9.2215 C       2      m2     0.0078
   1769 C           -6.8086    18.4660   -10.0593 C       2      m2    -0.0213
   1770 H           -6.7485    18.3655   -13.3748 H      17     m17     0.0202
   1771 C           -5.9572    19.7311   -12.4538 C      17     m17     0.0016
   1772 H           -5.9681    18.9181   -10.0643 H       2      m2     0.0251
   1773 C           -5.9385    16.7119    -8.9475 C       2      m2    -0.0200
   1774 C           -5.6280    18.2790   -12.9097 C      17     m17    -0.0196
   1775 H           -4.8666    17.0419    -9.2191 H       2      m2     0.0165
   1776 C           -4.8110    17.5221   -12.0308 C      17     m17    -0.0096
   1777 H           -5.3675    16.5268   -12.2944 H      17     m17     0.0148
   1778 C           -3.4726    17.7673   -11.5229 C      17     m17    -0.0220
   1779 C           -3.4785    19.4031   -11.3999 C      17     m17     0.0009
   1780 H           -2.4572    17.6189   -12.0440 H      17     m17     0.0135
   1781 H           -2.1361    16.1217   -12.9178 H       4      m4     0.0148
   1782 C            1.7584    16.1234   -12.9960 C       4      m4     0.0043
   1783 H            1.6018    17.8375   -11.7584 H       4      m4     0.0113
   1784 C            1.9796    16.7399   -11.6659 C       4      m4    -0.0179
   1785 H            2.3926    16.5293    -9.7254 H       4      m4     0.0117
   1786 C            2.4831    15.9817   -10.5793 C       4      m4    -0.0194
   1787 H            2.9249   -19.9115   -12.8943 H      21     m21     0.0120
   1788 C            3.6079    18.9216   -13.2161 C      21     m21    -0.0102
   1789 H            4.0233    18.5736   -11.3874 H      21     m21     0.0185
   1790 H            3.6712    18.9224    -9.1639 H       6      m6     0.0113
   1791 C            4.6147    18.4996   -12.2718 C      21     m21    -0.0145
   1792 H            4.4385    16.5376   -10.5561 H      21     m21     0.0172
   1793 C            4.8251    16.2999   -11.5924 C      21     m21    -0.0162
   1794 C            5.2353    17.2684   -12.6577 C      21     m21     0.0068
   1795 C            5.8108    19.5565   -10.0379 C       6      m6     0.0031
   1796 C            6.7935    19.6604   -12.2545 C       6      m6     0.0011
   1797 C            7.1705    18.9990    -9.6365 C       6      m6    -0.0002
   1798 H            7.3114    17.0337   -10.6497 H       6      m6     0.0222
   1799 C            7.8857    17.9353   -10.3967 C       6      m6    -0.0415
   1800 C            7.8308    18.8974   -11.7043 C       6      m6     0.0017
   1801 C            8.5992    18.4210   -12.7890 C       6      m6    -0.0156
   1802 H            8.7677    17.8917    -9.8553 H       6      m6     0.0192
   1803 H            8.7104    17.3244   -12.0940 H       6      m6     0.0185
   1804 H           10.7410    17.3340    -9.9634 H       2      m2     0.0122
   1805 H           10.6999    19.0993   -11.4906 H       6      m6     0.0188
   1806 C           11.3431    15.6961   -11.3577 C       2      m2     0.0060
   1807 C           11.3852    16.9457   -10.7918 C       2      m2    -0.0193
   1808 C           11.4767    19.6718   -13.1167 C       6      m6     0.0030
   1809 H           13.0459    18.7680   -10.9461 H       2      m2     0.0157
   1810 C           12.6928    17.6835   -10.7807 C       2      m2    -0.0135
   1811 C           14.0010    16.9320   -10.4298 C       2      m2    -0.0215
   1812 C           13.7168    15.5793   -10.7097 C       2      m2     0.0057
   1813 H           14.8419    19.3345   -12.3530 H       6      m6     0.0220
   1814 H           14.7696    17.6351    -9.9987 H       2      m2     0.0153
   1815 C           15.6617    19.5441   -11.7760 C       6      m6    -0.0186
   1816 C           15.9639    17.5945   -13.5405 C       6      m6    -0.0022
   1817 C           16.3977    18.3366   -12.1523 C       6      m6    -0.0031
   1818 H           16.9971    16.2934   -10.3900 H      26     m26     0.0164
   1819 C           17.7880    16.2203    -9.5194 C      26     m26    -0.0152
   1820 C           17.7327    18.6355   -12.3144 C       6      m6    -0.0002
   1821 C           18.1542    16.3517   -13.5000 C       6      m6    -0.0233
   1822 H          -18.2929    15.4480   -13.6905 H       6      m6     0.0156
   1823 C          -18.4227   -18.5228    -4.6240 C      26     m26     0.0001
   1824 H          -18.2432   -15.6473    -6.5324 H      27     m27     0.0170
   1825 H          -16.4061   -16.0825    -5.9387 H      27     m27     0.0162
   1826 H          -14.7546   -17.5369    -5.0709 H      27     m27     0.0193
   1827 H          -14.2690   -16.8482    -7.6956 H       6      m6     0.0136
   1828 C          -13.9658   -15.9907    -8.4019 C       6      m6    -0.0182
   1829 H          -13.6044   -19.5072    -8.1843 H      28     m28     0.0127
   1830 C          -12.9389   -19.7273    -7.3179 C      28     m28    -0.0176
   1831 H          -12.7504   -17.7657    -7.8792 H      28     m28     0.0180
   1832 C          -12.1904   -18.4929    -7.5250 C      28     m28    -0.0246
   1833 C          -10.7446   -18.6011    -7.1798 C      28     m28     0.0039
   1834 H          -10.7901   -16.5909    -6.6698 H      28     m28     0.0152
   1835 C           -9.9191   -19.9068    -6.9979 C      28     m28    -0.0038
   1836 C           -9.8752   -17.3881    -7.0714 C      28     m28    -0.0152
   1837 C           -8.6968   -19.7293    -6.4340 C      28     m28     0.0087
   1838 C           -8.3376   -17.3619    -7.0132 C      28     m28    -0.0114
   1839 C           -7.7685   -18.4634    -6.4847 C      28     m28    -0.0150
   1840 H           -7.9492   -16.2972    -7.4247 H      28     m28     0.0167
   1841 H           -6.5825   -18.3132    -6.1816 H      28     m28     0.0153
   1842 H           -5.4613   -16.3090    -7.5477 H      17     m17     0.0150
   1843 C           -5.4171   -17.0961    -8.2836 C      17     m17    -0.0197
   1844 C           -4.2403   -18.0475    -8.4669 C      17     m17    -0.0205
   1845 C           -4.5322   -17.8403    -4.7301 C       7      m7    -0.0187
   1846 H           -3.6890   -18.4060    -7.6406 H      17     m17     0.0184
   1847 H           -3.2450   -17.3061    -6.6499 H       7      m7     0.0140
   1848 C           -3.4908   -17.9316    -5.7181 C       7      m7    -0.0190
   1849 C           -2.5920   -19.0250    -5.7782 C       7      m7     0.0021
   1850 H           -2.2556   -18.9742    -8.5606 H      17     m17     0.0174
   1851 H           -0.7794   -18.2291    -7.2730 H       7      m7     0.0151
   1852 C           -1.3455   -19.0841    -6.5480 C       7      m7    -0.0145
   1853 C           -0.0796   -15.6000    -5.2659 C       5      m5    -0.0173
   1854 C            1.0764   -18.3075    -4.7053 C       5      m5     0.0011
   1855 C            1.3807   -16.2008    -5.8107 C       5      m5     0.0062
   1856 C            1.7195   -17.6260    -5.8251 C       5      m5    -0.0033
   1857 H            3.2842   -19.7916    -6.9069 H       5      m5     0.0147
   1858 C            3.1979   -17.6144    -6.1102 C       5      m5     0.0050
   1859 C            3.1849   -19.1518    -6.0289 C       5      m5    -0.0135
   1860 C            4.0690   -16.5645    -6.2381 C       5      m5    -0.0197
   1861 H            4.3504    19.8280    -8.2000 H       6      m6     0.0168
   1862 H            5.1833   -16.8168    -6.2148 H       5      m5     0.0221
   1863 H            4.7327   -16.5936    -8.5788 H       5      m5     0.0207
   1864 C            5.5258   -15.8375    -8.8170 C       5      m5    -0.0163
   1865 C            5.6805   -19.3674    -5.2154 C       6      m6    -0.0023
   1866 C            6.9552   -19.4752    -6.0222 C       6      m6     0.0006
   1867 C            7.4255   -17.1567    -5.4575 C       6      m6    -0.0212
   1868 H            7.6033   -16.4978    -6.2384 H       6      m6     0.0203
   1869 C            7.7546   -18.4040    -6.2446 C       6      m6     0.0007
   1870 C            8.4397   -19.3376    -8.6023 C       6      m6    -0.0184
   1871 C            8.8882   -18.6799    -7.3103 C       6      m6    -0.0247
   1872 H            9.7519   -19.6695    -7.0977 H       6      m6     0.0118
   1873 H            9.8440   -18.4657    -4.5329 H      15     m15     0.0175
   1874 H            9.1975   -17.4755    -7.5160 H       6      m6     0.0152
   1875 H           10.9402   -17.4893    -7.3103 H       5      m5     0.0130
   1876 H           11.6555   -19.2120    -8.6303 H       5      m5     0.0110
   1877 C           12.2389   -17.2852    -7.6866 C       5      m5    -0.0032
   1878 H           12.4644   -18.7022    -5.7678 H       5      m5     0.0130
   1879 C           12.8065   -16.6578    -5.2204 C       5      m5     0.0011
   1880 C           12.5589   -18.4859    -8.9591 C       5      m5    -0.0144
   1881 C           12.4361   -17.7159    -6.2662 C       5      m5    -0.0253
   1882 H           13.1755   -15.1749    -8.5956 H       5      m5     0.0217
   1883 C           13.0569   -15.7382    -7.6101 C       5      m5    -0.0267
   1884 H           14.2380   -15.9847    -7.0657 H       5      m5     0.0153
   1885 H           15.0285   -16.3184    -5.5730 H      26     m26     0.0156
   1886 C           15.8686   -16.3518    -4.7597 C      26     m26    -0.0143
   1887 H           16.1765   -16.9612    -7.0722 H      26     m26     0.0165
   1888 C           17.0395   -17.3824    -6.6791 C      26     m26    -0.0220
   1889 C           17.0701   -16.8864    -5.5015 C      26     m26     0.0012
   1890 C           17.6440   -18.6221    -7.1893 C      26     m26    -0.0179
   1891 H           17.5472   -18.8473    -8.3912 H      26     m26     0.0128
   1892 C           18.1999   -17.1679    -4.3963 C      26     m26    -0.0008
   1893 C           18.3009   -19.2535    -6.0262 C      26     m26     0.0035
   1894 C          -18.0219   -12.0717    -5.8593 C      27     m27     0.0017
   1895 C          -18.2537   -14.3970    -6.4631 C      27     m27    -0.0136
   1896 C          -16.9069   -12.8624    -5.5853 C      27     m27     0.0018
   1897 C          -16.8909   -14.2899    -6.1658 C      27     m27     0.0011
   1898 C          -15.8492   -15.0283    -5.7250 C      27     m27    -0.0138
   1899 C          -14.8200   -14.9988    -4.7070 C      27     m27    -0.0035
   1900 C          -13.4773   -11.3044    -8.8599 C       6      m6    -0.0182
   1901 C          -13.2898   -13.7397    -7.8996 C       6      m6     0.0050
   1902 C          -12.8386   -15.0151    -8.3313 C       6      m6    -0.0159
   1903 C          -12.4842   -11.5278    -7.8540 C       6      m6    -0.0114
   1904 C          -12.3305   -12.8161    -7.1268 C       6      m6    -0.0175
   1905 H          -11.9130   -15.0849    -7.7680 H       6      m6     0.0155
   1906 H          -11.6659   -13.4037    -6.2957 H       6      m6     0.0152
   1907 H          -10.9910   -11.2213    -5.0926 H      32     m32     0.0147
   1908 C           -9.9290   -11.5626    -5.3185 C      32     m32    -0.0128
   1909 H           -9.9681   -14.7806    -8.7298 H      17     m17     0.0158
   1910 H           -8.9390   -12.1716    -8.8680 H      17     m17     0.0192
   1911 C           -7.8323   -11.3869    -5.6252 C      32     m32    -0.0010
   1912 C           -7.0534   -11.4012    -6.7291 C      32     m32     0.0020
   1913 C           -6.0630   -12.3699    -6.9883 C      32     m32    -0.0207
   1914 H           -5.7651   -12.9826    -7.9778 H      32     m32     0.0134
   1915 C           -5.4654   -12.9173    -5.8729 C      32     m32     0.0089
   1916 C           -4.3134   -13.6244    -5.8988 C      32     m32    -0.0205
   1917 C           -4.1097   -14.5203    -4.7854 C      32     m32    -0.0135
   1918 H           -3.3960   -13.7904    -6.5197 H      32     m32     0.0133
   1919 H           -3.0685   -14.9826    -4.9319 H      32     m32     0.0146
   1920 H           -2.9333   -11.1194    -9.1650 H       3      m3     0.0160
   1921 H           -1.9971   -12.6419    -6.8737 H       3      m3     0.0152
   1922 H           -1.5843   -13.3444    -8.2276 H       3      m3     0.0157
   1923 C           -1.0825   -12.2168    -4.9191 C       3      m3    -0.0004
   1924 C           -1.0335   -12.1837    -6.4823 C       3      m3    -0.0157
   1925 H           -0.4327   -14.5244    -5.3846 H       5      m5     0.0195
   1926 C            0.3686   -12.4569    -6.8973 C       3      m3    -0.0021
   1927 C            0.9275   -12.6036    -8.3899 C       3      m3    -0.0055
   1928 C            1.3687   -12.2144    -5.9216 C       3      m3    -0.0259
   1929 H            1.7153   -14.2816    -6.1280 H       5      m5     0.0218
   1930 H            1.9288   -12.7875    -6.6229 H       3      m3     0.0202
   1931 C            2.2350   -15.1053    -5.9220 C       5      m5    -0.0216
   1932 C            2.3338   -12.4468    -8.3394 C       3      m3    -0.0197
   1933 H            2.8458   -11.7978    -7.5433 H       3      m3     0.0159
   1934 C            3.6435   -15.1923    -6.4471 C       5      m5     0.0035
   1935 H            4.6622   -13.3296    -5.0692 H       5      m5     0.0131
   1936 C            4.7690   -14.3445    -7.0127 C       5      m5    -0.0044
   1937 C            5.2001   -13.3064    -6.1848 C       5      m5    -0.0115
   1938 C            5.5181   -14.5709    -8.2454 C       5      m5     0.0037
   1939 C            5.9919   -12.1325    -6.2259 C       5      m5    -0.0238
   1940 H            6.4980   -11.7735    -5.2557 H       5      m5     0.0171
   1941 C            6.3750   -13.2624    -8.5991 C       5      m5    -0.0046
   1942 C            6.7015   -12.3217    -7.5642 C       5      m5     0.0055
   1943 C            7.4671   -11.1802    -7.7659 C       5      m5    -0.0204
   1944 C            8.4166   -11.3057    -8.7624 C       5      m5    -0.0148
   1945 H           10.7332   -12.8283    -9.2179 H       5      m5     0.0150
   1946 H           10.9002   -12.1006    -5.7873 H       5      m5     0.0213
   1947 H           11.8402   -13.3593    -8.1945 H       5      m5     0.0160
   1948 C           11.8999   -13.5082    -7.0497 C       5      m5    -0.0179
   1949 C           11.7246   -12.6935    -5.8150 C       5      m5    -0.0174
   1950 C           12.6767   -12.7566    -4.7115 C       5      m5    -0.0031
   1951 C           12.4328   -14.7636    -6.6095 C       5      m5     0.0059
   1952 C           13.0314   -15.1273    -5.2216 C       5      m5    -0.0060
   1953 H           14.7057   -11.5613    -4.5094 H       2      m2     0.0142
   1954 H           17.0394   -11.2687    -7.0129 H      27     m27     0.0140
   1955 H           16.7389   -14.2219    -7.5391 H      27     m27     0.0143
   1956 C           17.8354   -12.1407    -6.9159 C      27     m27    -0.0157
   1957 C           17.5570   -13.4951    -7.1210 C      27     m27    -0.0133
   1958 C          -18.0384    -6.9138    -8.3468 C       2      m2    -0.0182
   1959 C          -17.8513   -10.5912    -5.2104 C      27     m27    -0.0121
   1960 H          -17.1604    -7.3387    -8.6658 H       2      m2     0.0191
   1961 H          -17.5348    -7.1501    -6.3409 H       2      m2     0.0199
   1962 H          -13.1455    -7.7722    -7.2985 H      32     m32     0.0209
   1963 C          -12.2784    -7.7572    -7.9690 C      32     m32    -0.0268
   1964 H          -11.9019   -10.7177    -7.5119 H       6      m6     0.0180
   1965 H          -11.2669    -9.4414    -5.9454 H      32     m32     0.0157
   1966 C          -10.7548    -8.1178    -7.7255 C      32     m32     0.0057
   1967 C          -10.4740    -8.9779    -6.7353 C      32     m32    -0.0211
   1968 C           -9.7780    -7.6420    -8.6012 C      32     m32    -0.0059
   1969 C           -9.2371    -9.7996    -6.8576 C      32     m32    -0.0004
   1970 C           -8.9435   -10.5063    -5.6391 C      32     m32    -0.0041
   1971 C           -8.6089    -8.4283    -8.7662 C      32     m32    -0.0030
   1972 C           -8.3286    -9.8093    -7.8604 C      32     m32    -0.0030
   1973 C           -7.2797   -10.6477    -7.8939 C      32     m32    -0.0035
   1974 C           -6.3623   -10.1356    -8.8897 C      32     m32    -0.0183
   1975 H           -6.2659    -9.4513    -5.2973 H       3      m3     0.0184
   1976 H           -5.5021   -10.7260    -8.6532 H      32     m32     0.0184
   1977 H           -5.4267    -7.1608    -7.4003 H       3      m3     0.0171
   1978 C           -5.2544    -9.6031    -5.5749 C       3      m3    -0.0168
   1979 C           -4.4210    -7.0311    -5.9902 C       3      m3    -0.0239
   1980 C           -4.5165   -10.6532    -4.8415 C       3      m3    -0.0183
   1981 C           -4.4995    -6.7071    -7.7688 C       3      m3    -0.0161
   1982 C           -4.4343    -8.5932    -6.0225 C       3      m3    -0.0019
   1983 C           -3.8541    -7.7736    -8.7085 C       3      m3     0.0000
   1984 C           -3.1149   -10.8490    -4.9958 C       3      m3    -0.0013
   1985 C           -3.1011    -8.8872    -6.5874 C       3      m3    -0.0018
   1986 C           -2.8774    -8.6832    -7.9694 C       3      m3    -0.0015
   1987 C           -2.3978   -10.2230    -6.1645 C       3      m3    -0.0011
   1988 H           -2.3114    -7.4036    -4.9213 H       3      m3     0.0211
   1989 C           -2.0844    -9.4069    -8.9465 C       3      m3     0.0042
   1990 C           -1.8342   -10.9022    -8.7373 C       3      m3    -0.0337
   1991 C           -1.3471   -10.5645    -7.0728 C       3      m3    -0.0111
   1992 H           -1.2330   -11.3081    -9.4984 H       3      m3     0.0215
   1993 H           -0.5193    -9.9178    -6.7735 H       3      m3     0.0197
   1994 H            1.5845   -10.4517    -9.1715 H      13     m13     0.0202
   1995 H            2.9849    -7.7033    -8.8892 H      13     m13     0.0176
   1996 H            5.3416   -10.0475    -4.7248 H       2      m2     0.0153
   1997 H            5.3443    -7.9776    -6.0791 H       2      m2     0.0154
   1998 C            6.1466    -9.3444    -4.6578 C       2      m2    -0.0214
   1999 C            6.3264    -8.3799    -5.7854 C       2      m2    -0.0127
   2000 H            6.9457   -10.6568    -7.0807 H       5      m5     0.0221
   2001 C            7.5375    -7.6048    -5.9633 C       2      m2    -0.0191
   2002 H            8.1730    -7.2451    -6.7859 H       2      m2     0.0157
   2003 C            8.7993    -7.9097    -4.9057 C       2      m2     0.0018
   2004 H            9.5389   -10.9919    -8.9961 H       5      m5     0.0146
   2005 H           10.2243    -6.3448    -5.5356 H       2      m2     0.0135
   2006 C           10.0602    -7.4961    -5.1606 C       2      m2    -0.0165
   2007 H           13.3150    -9.1531    -8.4231 H       5      m5     0.0167
   2008 H           15.0358    -6.6070    -9.2952 H       2      m2     0.0145
   2009 H           16.0439   -10.2909    -9.3354 H       5      m5     0.0258
   2010 C           17.6125    -6.6313    -8.8394 C       2      m2    -0.0165
   2011 H           17.7976   -10.4734    -5.0266 H      27     m27     0.0189
   2012 C          -18.2540    -5.4861    -5.0262 C       2      m2    -0.0046
   2013 C          -18.3950    -6.7401    -6.9965 C       2      m2    -0.0137
   2014 C          -16.7454    -5.8369    -4.6800 C       2      m2    -0.0032
   2015 H          -16.6663    -2.8578    -6.5057 H       2      m2     0.0206
   2016 H          -16.6719    -4.7368    -7.1809 H       2      m2     0.0172
   2017 C          -15.6214    -5.1227    -5.5336 C       2      m2     0.0002
   2018 C          -15.5833    -4.5378    -6.8604 C       2      m2    -0.0143
   2019 H          -14.7192    -3.0339    -8.1897 H       2      m2     0.0223
   2020 C          -14.6368    -3.6792    -7.5401 C       2      m2    -0.0159
   2021 C          -14.2803    -4.9558    -4.8754 C       2      m2    -0.0062
   2022 C          -13.4770    -4.0931    -5.4669 C       2      m2     0.0047
   2023 C          -13.4959    -3.5733    -6.7115 C       2      m2    -0.0163
   2024 H          -12.7132    -2.9145    -6.9410 H       2      m2     0.0192
   2025 C          -12.1400    -4.0620    -4.8371 C       2      m2    -0.0263
   2026 C          -11.5175    -5.4228    -4.6547 C       2      m2    -0.0095
   2027 H          -11.8394    -3.0859    -5.6085 H       2      m2     0.0187
   2028 H          -11.6141    -5.9847    -5.7648 H       2      m2     0.0202
   2029 C           -9.5943    -4.0381    -5.5349 C       2      m2     0.0032
   2030 C           -9.4045    -2.7144    -5.3019 C       2      m2    -0.0065
   2031 C           -9.5061    -3.3474    -7.5198 C       2      m2     0.0063
   2032 C           -9.2326    -3.9554    -8.8976 C       2      m2    -0.0226
   2033 C           -9.1948    -4.5055    -6.7521 C       2      m2    -0.0229
   2034 H           -9.5411    -5.7908    -3.8428 H       2      m2     0.0162
   2035 H           -9.0976    -5.5459    -7.3887 H       2      m2     0.0192
   2036 C           -6.8610    -3.1233    -8.5032 C       2      m2    -0.0208
   2037 H           -6.8195    -3.5485    -7.6917 H       2      m2     0.0207
   2038 H           -6.5113    -4.3953    -4.9902 H       3      m3     0.0156
   2039 C           -5.4620    -3.8672    -4.9236 C       3      m3    -0.0173
   2040 C           -5.5635    -2.4690    -5.0346 C       3      m3    -0.0195
   2041 H           -5.5646    -5.3290    -8.2958 H       3      m3     0.0151
   2042 H           -5.3600    -7.2277    -5.9213 H       3      m3     0.0176
   2043 C           -4.4606    -5.3797    -8.8030 C       3      m3    -0.0136
   2044 C           -4.2623    -4.6111    -4.7983 C       3      m3    -0.0040
   2045 C           -3.8954    -6.0373    -5.0056 C       3      m3     0.0018
   2046 C           -3.4029    -4.2357    -8.9252 C       3      m3     0.0012
   2047 H           -3.9407    -4.0829    -6.8339 H       3      m3     0.0203
   2048 C           -2.9796    -3.9711    -7.5358 C       3      m3    -0.0174
   2049 C           -2.8496    -6.6224    -4.2910 C       3      m3    -0.0187
   2050 C           -1.8058    -3.2994    -7.4137 C       3      m3    -0.0137
   2051 H           -1.4709    -3.4016    -8.5449 H       3      m3     0.0201
   2052 C           -1.0247    -3.3246    -6.0480 C       3      m3    -0.0202
   2053 H           -1.2919    -3.8758    -5.1886 H       3      m3     0.0231
   2054 C            0.0757    -2.4460    -6.1184 C       3      m3     0.0073
   2055 C            1.1978    -2.5058    -4.7958 C       3      m3    -0.0213
   2056 H            1.1718    -5.0312    -8.7726 H      13     m13     0.0204
   2057 C            2.5872    -2.6542    -4.9876 C       3      m3     0.0053
   2058 C            2.7103    -2.6553    -6.4725 C       3      m3    -0.0021
   2059 C            4.1091    -2.5533    -6.7822 C       3      m3    -0.0011
   2060 C            4.5987    -2.5308    -8.2365 C       3      m3     0.0063
   2061 C            5.2665    -2.3152    -5.7639 C       3      m3     0.0014
   2062 C            5.8449    -3.3112    -8.3620 C       3      m3    -0.0191
   2063 C            6.7276    -2.4955    -6.0879 C       3      m3    -0.0027
   2064 C            6.8368    -3.3543    -7.2805 C       3      m3    -0.0143
   2065 H            8.0011    -4.9869    -4.9972 H       3      m3     0.0157
   2066 C            7.6893    -2.6482    -5.0077 C       3      m3    -0.0039
   2067 H            7.7603    -4.0207    -7.5255 H       3      m3     0.0150
   2068 H           10.7090    -3.1901    -8.8431 H      14     m14     0.0156
   2069 C           11.5789    -3.3268    -8.1634 C      14     m14    -0.0206
   2070 H           12.2760    -5.2040    -8.8332 H      14     m14     0.0124
   2071 C           12.5615    -4.3631    -8.2494 C      14     m14    -0.0171
   2072 H           12.6109    -5.0415    -5.9060 H       2      m2     0.0188
   2073 H           13.2935    -6.6049    -7.5839 H       2      m2     0.0148
   2074 C           13.3416    -5.6908    -5.3104 C       2      m2    -0.0232
   2075 C           13.9908    -4.2371    -8.7145 C      14     m14    -0.0155
   2076 H           14.3404    -3.1162    -6.1425 H       2      m2     0.0208
   2077 C           14.3282    -6.3574    -7.4755 C       2      m2    -0.0192
   2078 C           13.9970    -2.7659    -5.2354 C       2      m2    -0.0239
   2079 C           14.5825    -5.9071    -6.0972 C       2      m2     0.0040
   2080 C           14.4771    -2.7325    -8.6604 C      14     m14    -0.0260
   2081 C           15.4049    -6.6059    -8.2560 C       2      m2    -0.0202
   2082 H           15.1509    -3.4053    -7.6954 H      14     m14     0.0160
   2083 C           15.8385    -5.7443    -5.6322 C       2      m2    -0.0016
   2084 C           16.6035    -6.1882    -7.7728 C       2      m2     0.0064
   2085 C           16.8298    -5.6918    -6.4452 C       2      m2    -0.0039
   2086 C           17.7772    -6.2625    -5.9420 C       2      m2     0.0013
   2087 H          -18.2820    -0.3529    -7.7874 H       2      m2     0.0186
   2088 C          -17.9304     0.0907    -5.4042 C       2      m2    -0.0188
   2089 C          -17.7063    -1.3525    -5.1038 C       2      m2    -0.0162
   2090 C          -16.7496     0.9614    -5.7925 C       2      m2     0.0015
   2091 C          -16.5161    -2.2449    -5.7659 C       2      m2    -0.0200
   2092 C          -15.6778     0.1884    -6.0229 C       2      m2    -0.0022
   2093 C          -15.4577    -1.1606    -5.8303 C       2      m2     0.0031
   2094 C          -14.5146     1.2880    -6.1610 C       2      m2     0.0016
   2095 C          -14.2749    -1.2169    -4.9967 C       2      m2     0.0003
   2096 C          -13.2089     0.7047    -5.8657 C       2      m2    -0.0147
   2097 C          -13.2864    -0.3056    -4.9549 C       2      m2    -0.0174
   2098 H          -12.3503    -0.4808    -4.2643 H       2      m2     0.0173
   2099 H          -12.2539     1.4508    -6.2283 H       2      m2     0.0187
   2100 H          -11.4523    -0.4971    -7.7584 H       2      m2     0.0217
   2101 C          -10.8429    -1.3550    -7.9482 C       2      m2    -0.0230
   2102 C           -9.6809    -1.9817    -7.4797 C       2      m2     0.0016
   2103 C           -9.5592    -1.5046    -6.0458 C       2      m2    -0.0031
   2104 H           -8.9475     0.9971    -6.7048 H       2      m2     0.0247
   2105 C           -9.4039    -0.3081    -5.3625 C       2      m2    -0.0107
   2106 C           -9.2238     0.8759    -4.6736 C       2      m2    -0.0030
   2107 C           -9.0147     1.2873    -7.7354 C       2      m2    -0.0229
   2108 C           -7.9395     2.2251    -7.9658 C       2      m2    -0.0186
   2109 H           -7.0223     1.5166    -8.2537 H       2      m2     0.0199
   2110 H           -6.4625    -1.9463    -5.3406 H       3      m3     0.0190
   2111 C           -5.8895    -1.9629    -8.7035 C       2      m2    -0.0198
   2112 H           -4.9897    -1.9798    -8.1594 H       2      m2     0.0178
   2113 H           -5.0238     0.1592    -5.5305 H       3      m3     0.0164
   2114 C           -4.4949    -0.4172    -4.8103 C       3      m3    -0.0229
   2115 C           -4.2191    -1.9130    -4.8488 C       3      m3     0.0036
   2116 H           -3.2056    -0.2313    -6.1851 H       3      m3     0.0181
   2117 C           -2.6774    -1.1061    -8.6948 C       3      m3    -0.0237
   2118 C           -2.1913     0.1385    -8.5313 C       3      m3    -0.0232
   2119 H           -2.6190    -1.6424    -7.8088 H       3      m3     0.0220
   2120 C           -2.3359     0.5600    -5.9946 C       3      m3    -0.0175
   2121 C           -1.8600     0.8065    -4.6973 C       3      m3    -0.0132
   2122 C           -1.5126     0.4454    -7.2836 C       3      m3    -0.0002
   2123 H           -0.0849    -1.0935    -7.8535 H       3      m3     0.0220
   2124 C           -0.0042     0.5320    -7.0208 C       3      m3    -0.0068
   2125 C            0.1943     1.1879    -5.7439 C       3      m3     0.0052
   2126 C            0.6430    -1.7928    -7.3500 C       3      m3    -0.0215
   2127 C            1.0066     1.2874    -7.8193 C       3      m3    -0.0011
   2128 C            2.0041     2.0984    -8.3668 C       3      m3    -0.0171
   2129 C            1.8797    -2.0920    -7.6579 C       3      m3     0.0042
   2130 C            2.5354    -1.6209    -8.8989 C       3      m3    -0.0175
   2131 H            7.6226    -0.0614    -6.0023 H       3      m3     0.0143
   2132 H            8.0206     1.7440    -5.0811 H       3      m3     0.0155
   2133 C            8.0179    -0.3771    -4.8973 C       3      m3    -0.0137
   2134 H           10.8497    -0.6049    -7.0197 H      14     m14     0.0184
   2135 C           11.3821    -0.8293    -7.9149 C      14     m14    -0.0216
   2136 C           12.2595    -1.9525    -7.8971 C      14     m14     0.0048
   2137 C           13.5911    -1.8696    -8.2165 C      14     m14     0.0043
   2138 C           13.7331    -0.6063    -8.7891 C      14     m14    -0.0127
   2139 C           14.4624    -1.2742    -4.8915 C       2      m2     0.0084
   2140 C           14.7699     1.5395    -4.7835 C       2      m2    -0.0179
   2141 C           15.7948     0.5157    -5.3748 C       2      m2    -0.0135
   2142 C           15.5770    -0.8559    -5.5783 C       2      m2    -0.0237
   2143 H           16.2022    -1.3426    -6.0885 H       2      m2     0.0192
   2144 C           16.3595     2.0115    -8.8418 C       2      m2    -0.0222
   2145 H           16.3789     1.1456    -6.0160 H       2      m2     0.0190
   2146 C           16.9833     1.1128    -7.8711 C       2      m2    -0.0072
   2147 H          -18.4123     0.5150    -4.4547 H       2      m2     0.0171
   2148 C          -18.4080     0.6748    -8.0166 C       2      m2    -0.0224
   2149 H          -17.5541     2.4667    -7.3654 H       2      m2     0.0234
   2150 C          -17.0025     5.5045    -6.4409 C       2      m2     0.0029
   2151 C          -16.9155     2.4379    -6.4200 C       2      m2    -0.0206
   2152 C          -15.8782     4.7085    -6.2563 C       2      m2     0.0005
   2153 C          -15.7796     3.2301    -5.9855 C       2      m2     0.0000
   2154 C          -14.6406     5.5649    -5.8949 C       2      m2    -0.0181
   2155 C          -14.4289     2.6475    -6.0915 C       2      m2    -0.0068
   2156 H          -13.8117     5.1068    -5.5422 H       2      m2     0.0245
   2157 H          -13.5736     3.4734    -8.9778 H       2      m2     0.0171
   2158 C          -13.0241     3.3162    -6.2054 C       2      m2    -0.0020
   2159 C          -12.7901     3.6431    -4.8687 C       2      m2    -0.0254
   2160 C          -12.6053     3.8660    -8.6215 C       2      m2    -0.0178
   2161 C          -12.1884     4.1202    -7.2300 C       2      m2     0.0025
   2162 C          -12.0857     6.4576    -9.0139 C       2      m2    -0.0222
   2163 C          -11.2990     6.3743    -7.7861 C       2      m2     0.0055
   2164 C          -11.5465     5.2663    -6.8515 C       2      m2    -0.0013
   2165 C          -11.3589     5.7581    -5.3787 C       2      m2    -0.0028
   2166 H           -9.8550     3.9854    -4.4082 H       2      m2     0.0220
   2167 H           -8.1160     4.2567    -9.7618 H       2      m2     0.0193
   2168 C           -7.6797     4.6225    -8.8872 C       2      m2    -0.0217
   2169 C           -7.9905     2.8478    -4.7160 C       2      m2    -0.0052
   2170 C           -7.5760     3.7223    -7.7337 C       2      m2     0.0056
   2171 C           -7.0782     5.8487    -8.7951 C       2      m2     0.0020
   2172 C           -6.5118     4.0094    -6.7638 C       2      m2    -0.0007
   2173 C           -6.6777     3.2801    -5.5005 C       2      m2    -0.0011
   2174 C           -5.6026     5.5640    -8.2133 C       2      m2     0.0002
   2175 C           -5.5259     4.8624    -6.9953 C       2      m2    -0.0014
   2176 C           -5.3401     2.7443    -5.3487 C       2      m2    -0.0176
   2177 C           -4.3105     6.3916    -8.3798 C       2      m2    -0.0175
   2178 C           -4.1960     4.5103    -6.4240 C       2      m2     0.0049
   2179 C           -4.1622     3.1526    -6.0063 C       2      m2    -0.0186
   2180 H           -3.3120     2.3912    -5.7344 H       2      m2     0.0184
   2181 C           -3.3161     6.4712    -7.4481 C       2      m2    -0.0126
   2182 C           -3.0889     5.4858    -6.4296 C       2      m2    -0.0199
   2183 H           -2.4915     5.8012    -5.5162 H       2      m2     0.0145
   2184 C           -0.5801     3.7769    -8.7179 C       7      m7    -0.0151
   2185 H           -0.0261     3.6646    -7.8023 H       7      m7     0.0222
   2186 H            0.3713     3.4192    -4.4827 H       3      m3     0.0178
   2187 C            0.7904     2.6027    -5.2247 C       3      m3    -0.0216
   2188 C            1.1515     5.8868    -9.3072 C       7      m7    -0.0002
   2189 C            1.6641     2.8050    -6.1114 C       3      m3     0.0026
   2190 H            3.4256     5.7129    -5.7869 H       7      m7     0.0263
   2191 C            2.4736     2.9332    -7.2397 C       3      m3    -0.0202
   2192 C            3.1384     6.7181    -6.2331 C       7      m7    -0.0497
   2193 H            3.3621     3.3701    -7.0272 H       3      m3     0.0188
   2194 H            4.1402     7.2500    -6.6281 H       7      m7     0.0219
   2195 C            4.7621     3.6981    -5.5193 C       1      m1    -0.0195
   2196 H            4.8900     2.9472    -6.1856 H       1      m1     0.0146
   2197 C            5.9073     4.5420    -5.3227 C       1      m1    -0.0226
   2198 H            6.6891     4.2975    -5.9408 H       1      m1     0.0163
   2199 H            8.1563     5.7404    -4.6644 H       1      m1     0.0167
   2200 H           10.0257     1.5001    -6.1366 H       2      m2     0.0157
   2201 H            9.3245     3.3292    -8.0004 H       2      m2     0.0157
   2202 C           10.3031     3.2475    -7.3420 C       2      m2    -0.0135
   2203 C           10.4642     2.5103    -6.2533 C       2      m2    -0.0183
   2204 C           11.6854     2.5542    -5.4075 C       2      m2     0.0079
   2205 C           11.7008     3.4714    -7.7704 C       2      m2     0.0043
   2206 C           12.3069     3.8311    -5.5643 C       2      m2    -0.0010
   2207 C           12.5287     3.3646    -8.9412 C       2      m2     0.0038
   2208 C           12.4792     4.1017    -6.8746 C       2      m2    -0.0017
   2209 C           13.9852     4.4744    -6.8490 C       2      m2     0.0056
   2210 C           14.6082     4.3390    -8.1151 C       2      m2    -0.0195
   2211 H           14.8878     2.7170    -4.5726 H       2      m2     0.0193
   2212 C           14.7891     4.5486    -5.7738 C       2      m2    -0.0233
   2213 H           15.2261     2.1181    -8.7197 H       2      m2     0.0208
   2214 H           15.5413     4.9145    -8.2086 H       2      m2     0.0184
   2215 H           15.8248     4.4947    -5.7036 H       2      m2     0.0159
   2216 H           17.9738     4.7271    -7.1623 H       2      m2     0.0193
   2217 C          -18.4055     5.4906    -6.5216 C       2      m2    -0.0179
   2218 C          -17.6550     7.6549    -8.0053 C       2      m2    -0.0004
   2219 C          -16.6598     6.8031    -7.2443 C       2      m2    -0.0001
   2220 H          -15.5647     9.1782    -4.9284 H       1      m1     0.0176
   2221 C          -15.4647     7.1555    -7.7527 C       2      m2     0.0032
   2222 C          -14.8800     7.8283    -9.0493 C       2      m2    -0.0177
   2223 C          -14.5224     6.7924    -6.5084 C       2      m2    -0.0143
   2224 H          -13.6876     7.3984    -5.9836 H       2      m2     0.0144
   2225 H          -12.1678     8.2440    -6.5338 H       2      m2     0.0137
   2226 C          -11.3422     7.6030    -7.0250 C       2      m2    -0.0194
   2227 C          -10.4538     6.8120    -4.9262 C       2      m2     0.0013
   2228 C          -10.1731     7.6052    -6.1421 C       2      m2    -0.0182
   2229 H           -9.0493     7.7015    -6.2966 H       2      m2     0.0194
   2230 H           -7.8743     9.3289    -8.7140 H       2      m2     0.0207
   2231 C           -6.9334     9.3846    -8.4789 C       2      m2    -0.0207
   2232 C           -5.7137    10.1099    -8.3980 C       2      m2    -0.0109
   2233 C           -5.3484     9.4997    -4.7865 C      28     m28    -0.0224
   2234 H           -4.9367     9.7514    -7.5727 H       2      m2     0.0205
   2235 H           -4.2206     6.7099    -9.3573 H       2      m2     0.0205
   2236 C           -4.3204     9.6693    -5.6627 C      28     m28    -0.0114
   2237 C           -3.4997    10.7322    -6.0297 C      28     m28    -0.0224
   2238 H           -3.8332     8.6810    -5.4662 H      28     m28     0.0145
   2239 H           -2.7328    10.9091    -6.7975 H      28     m28     0.0185
   2240 H           -2.4535     7.1527    -7.4410 H       2      m2     0.0170
   2241 H           -0.8285     9.8109    -4.4568 H       7      m7     0.0183
   2242 C            0.0427    10.2812    -7.9970 C       7      m7    -0.0028
   2243 C           -0.0181    10.1761    -5.2267 C       7      m7    -0.0138
   2244 C            0.4820     7.9306    -8.2626 C       7      m7    -0.0029
   2245 C            0.7152     9.2310    -7.3637 C       7      m7     0.0027
   2246 C            0.8969     9.1328    -5.9498 C       7      m7    -0.0236
   2247 H            1.2189     8.1525    -5.8067 H       7      m7     0.0178
   2248 C            1.1127     6.7601    -7.9586 C       7      m7    -0.0039
   2249 H            2.1370     9.4558    -4.5354 H       1      m1     0.0167
   2250 H            2.6986     7.3653    -5.3658 H       7      m7     0.0234
   2251 C            2.5452     6.8359    -7.6321 C       7      m7     0.0038
   2252 C            3.3787     7.5338    -8.5522 C       7      m7    -0.0018
   2253 C            4.5129     8.4938    -8.7801 C       7      m7    -0.0149
   2254 H            5.5193     8.7449    -8.3135 H       7      m7     0.0135
   2255 H            6.6674    10.6796    -6.6994 H       6      m6     0.0155
   2256 H            7.0132     8.0125    -6.8590 H       2      m2     0.0135
   2257 C            8.2101     7.8152    -6.7947 C       2      m2    -0.0161
   2258 C            8.5134     7.6192    -8.1624 C       2      m2    -0.0002
   2259 H            8.7376     8.7446    -4.9835 H       2      m2     0.0126
   2260 C            9.0382     7.9816    -5.7643 C       2      m2    -0.0131
   2261 H            9.2655    10.4135    -8.0114 H       6      m6     0.0184
   2262 H            9.6639    10.7489    -5.9007 H       6      m6     0.0168
   2263 C           10.0707     7.6149    -8.1638 C       2      m2    -0.0010
   2264 C           10.2850     7.3404    -5.6384 C       2      m2    -0.0198
   2265 H           11.0027     7.4855    -4.8442 H       2      m2     0.0149
   2266 C           10.9842     7.4422    -7.0766 C       2      m2     0.0016
   2267 H           11.7734    11.7904    -8.3121 H       6      m6     0.0157
   2268 C           12.2264     7.0584    -7.4916 C       2      m2    -0.0150
   2269 H           13.1606     9.6573    -4.8641 H      15     m15     0.0138
   2270 C           12.8737     7.2206    -8.7994 C       2      m2    -0.0167
   2271 C           13.3986    10.3174    -5.6114 C      15     m15    -0.0215
   2272 H           12.6821     6.4708    -6.5662 H       2      m2     0.0181
   2273 C           13.9403     9.9449    -7.0726 C      15     m15    -0.0185
   2274 H           13.8017     8.9848    -7.2813 H      15     m15     0.0176
   2275 H           13.8535     7.6308    -8.9546 H       2      m2     0.0179
   2276 H           15.1822    11.0649    -8.5442 H      15     m15     0.0163
   2277 H           16.1661     8.3440    -6.8191 H       2      m2     0.0133
   2278 H           16.4854     6.6822    -6.5618 H       2      m2     0.0131
   2279 C           16.8574     8.9043    -7.5947 C       2      m2    -0.0179
   2280 H           17.5961    10.7852    -7.9840 H       2      m2     0.0168
   2281 C           17.5933     9.8581    -8.3464 C       2      m2    -0.0136
   2282 C           17.5571     6.5971    -6.8868 C       2      m2    -0.0203
   2283 C           17.8288     7.8518    -7.5503 C       2      m2     0.0034
   2284 H          -17.7043    12.6045    -6.7319 H      26     m26     0.0186
   2285 C          -17.9916    14.5583    -7.5344 C      26     m26     0.0061
   2286 H          -17.4030    13.8710    -4.3549 H      26     m26     0.0193
   2287 C          -17.7797    13.5683    -6.5545 C      26     m26    -0.0205
   2288 C          -17.6393    14.2430    -5.3411 C      26     m26    -0.0153
   2289 C          -16.4034    15.3347    -5.4380 C      26     m26    -0.0013
   2290 H          -10.2774    13.8926    -4.8887 H      28     m28     0.0194
   2291 C           -9.2761    13.8203    -5.1074 C      28     m28    -0.0220
   2292 C           -9.2039    15.1483    -5.6282 C      28     m28     0.0037
   2293 C           -8.4869    12.7167    -5.0276 C      28     m28     0.0039
   2294 C           -7.9913    13.2770    -8.6830 C       2      m2    -0.0130
   2295 C           -7.7961    15.1808    -5.9773 C      28     m28    -0.0193
   2296 C           -7.6224    14.7342    -8.8066 C       2      m2     0.0008
   2297 H           -6.9961    12.8259    -8.6961 H       2      m2     0.0199
   2298 C           -7.0948    12.8690    -5.3185 C      28     m28    -0.0008
   2299 C           -6.7251    14.0777    -5.8506 C      28     m28     0.0030
   2300 C           -6.2456    15.3658    -8.9454 C       2      m2    -0.0160
   2301 C           -5.9576    11.9057    -4.8495 C      28     m28    -0.0040
   2302 C           -5.3589    14.2235    -6.4077 C      28     m28    -0.0190
   2303 H           -4.8706    15.2996    -6.6366 H      28     m28     0.0138
   2304 H           -5.3903    14.5072    -9.1756 H       2      m2     0.0122
   2305 C           -4.7284    11.7635    -5.6454 C      28     m28     0.0039
   2306 C           -4.5443    13.1964    -6.1081 C      28     m28    -0.0141
   2307 H           -3.9703    12.6526    -8.7944 H       2      m2     0.0171
   2308 H           -3.4637    13.6986    -6.4591 H      28     m28     0.0119
   2309 H           -2.3390    14.8598    -6.3038 H       7      m7     0.0189
   2310 C           -0.8930    15.4647    -7.7120 C       7      m7    -0.0130
   2311 H           -0.0033    12.3529    -5.2280 H       7      m7     0.0183
   2312 C            0.0663    11.6646    -7.3775 C       7      m7    -0.0018
   2313 C           -0.0052    11.3740    -5.8648 C       7      m7    -0.0136
   2314 C           -0.1137    13.0107    -8.1301 C       7      m7     0.0008
   2315 C            0.2762    14.6314    -7.8411 C       7      m7    -0.0168
   2316 C            0.6988    15.1306    -5.2841 C       7      m7    -0.0022
   2317 C            1.0673    14.5182    -6.4928 C       7      m7    -0.0006
   2318 H            1.0447    15.0754    -8.4822 H       7      m7     0.0137
   2319 C            2.3638    13.7784    -6.3218 C       7      m7    -0.0175
   2320 H            2.4635    13.2039    -7.4081 H       7      m7     0.0154
   2321 C            3.3700    13.8888    -5.2287 C       7      m7    -0.0218
   2322 H            3.9896    14.5150    -7.0129 H       6      m6     0.0192
   2323 H            4.3604    13.7026    -5.5858 H       7      m7     0.0185
   2324 C            4.9289    14.8359    -7.0986 C       6      m6    -0.0217
   2325 H            5.1117    12.1763    -6.1710 H       6      m6     0.0147
   2326 C            6.0372    12.5136    -6.7369 C       6      m6    -0.0157
   2327 C            5.9805    13.8799    -7.0743 C       6      m6     0.0010
   2328 C            6.8361    11.7148    -7.0447 C       6      m6    -0.0178
   2329 C            7.2349    14.4285    -7.3309 C       6      m6    -0.0010
   2330 C            8.2748    12.2143    -7.3854 C       6      m6     0.0028
   2331 C            8.4318    13.5108    -7.3645 C       6      m6    -0.0016
   2332 C            9.4669    11.1780    -7.1364 C       6      m6    -0.0282
   2333 C            9.7736    14.2922    -7.6793 C       6      m6     0.0055
   2334 C           10.5882    12.0075    -7.7856 C       6      m6    -0.0073
   2335 H           10.5030    14.3683    -5.2267 H       1      m1     0.0191
   2336 C           10.8250    13.3573    -7.7886 C       6      m6    -0.0230
   2337 H           10.8203    11.8988    -4.8826 H       1      m1     0.0191
   2338 H           11.8036    13.6296    -7.9144 H       6      m6     0.0216
   2339 C           13.3743    11.6182    -5.1466 C      15     m15     0.0021
   2340 C           13.7924    12.7958    -5.9961 C      15     m15    -0.0013
   2341 C           14.4635    12.5058    -7.1627 C      15     m15     0.0017
   2342 C           14.4718    11.2229    -7.6225 C      15     m15    -0.0153
   2343 C           14.6021    13.6784    -5.2239 C      15     m15    -0.0066
   2344 C           15.0531    13.5877    -8.0072 C      15     m15    -0.0160
   2345 C           15.1631    14.8042    -6.0076 C      15     m15     0.0095
   2346 C           15.3888    14.8199    -7.5405 C      15     m15    -0.0148
   2347 H           15.7059    15.6999    -8.1413 H      15     m15     0.0180
   2348 C           18.1979    14.0315    -8.8041 C      26     m26    -0.0143
   2349 H           17.9968    12.9966    -9.3602 H      26     m26     0.0126
   2350 C          -17.9705    16.7720    -8.6181 C      26     m26     0.0046
   2351 C          -18.0121    19.3926    -5.8339 C      26     m26    -0.0202
   2352 C          -17.7039    15.9943    -7.6432 C      26     m26    -0.0024
   2353 C          -17.1769    18.0861    -8.7563 C      26     m26    -0.0220
   2354 C          -17.1043    18.9964    -4.9103 C      26     m26     0.0035
   2355 C          -16.4480    16.1261    -6.5477 C      26     m26    -0.0015
   2356 C          -16.0604    17.4998    -6.7059 C      26     m26    -0.0004
   2357 C          -16.2048    17.9521    -5.3053 C      26     m26    -0.0060
   2358 C          -15.9101    17.9717    -8.1088 C      26     m26    -0.0199
   2359 H          -15.2077    18.3791    -8.6461 H      26     m26     0.0170
   2360 H          -13.3904    16.9180    -6.8734 H      28     m28     0.0165
   2361 H          -12.0578    15.2757    -6.5064 H      28     m28     0.0156
   2362 C          -12.3529    17.5071    -6.7702 C      28     m28    -0.0161
   2363 C          -12.1352    18.9508    -6.9026 C      28     m28     0.0022
   2364 C          -11.6461    16.2747    -6.1172 C      28     m28    -0.0169
   2365 C          -10.7102    18.8636    -6.5773 C      28     m28     0.0007
   2366 C          -10.2265    16.2960    -5.6904 C      28     m28    -0.0033
   2367 C           -9.9180    17.7753    -5.7885 C      28     m28     0.0061
   2368 C           -8.9147    18.1449    -5.1627 C      28     m28    -0.0163
   2369 C           -8.2521    19.2905    -5.5176 C      28     m28    -0.0200
   2370 H           -7.3070    19.3265    -5.0427 H      28     m28     0.0169
   2371 H           -7.2576    15.8827    -6.5781 H      28     m28     0.0216
   2372 C           -2.7101    19.4536    -5.1124 C       7      m7     0.0001
   2373 H           -2.1450    16.8150    -6.2690 H       7      m7     0.0224
   2374 C           -1.5861    18.3727    -5.1194 C       7      m7    -0.0001
   2375 C           -1.7719    15.8232    -6.4969 C       7      m7    -0.0367
   2376 H           -1.0142    16.5871    -8.0086 H       7      m7     0.0140
   2377 C           -0.5083    18.5147    -6.1459 C       7      m7    -0.0143
   2378 C           -0.4847    19.6698    -6.9460 C       7      m7    -0.0133
   2379 C           -0.6218    15.9259    -5.1685 C       7      m7    -0.0022
   2380 H            0.5391    17.9238    -6.1750 H       7      m7     0.0158
   2381 H           -0.2781    19.4738    -8.1323 H       7      m7     0.0108
   2382 H            2.4439    18.7381    -5.4127 H       5      m5     0.0171
   2383 C            2.3106    19.7419    -5.3424 C       5      m5    -0.0215
   2384 H            4.0578    17.6180    -5.9839 H       6      m6     0.0162
   2385 H            4.0551    16.5536    -7.3349 H       6      m6     0.0142
   2386 C            4.4641    19.7264    -9.3564 C       6      m6    -0.0299
   2387 C            4.9305    16.0957    -7.2738 C       6      m6    -0.0175
   2388 C            4.8549    19.2929    -4.8554 C       6      m6     0.0076
   2389 C            4.9322    18.2413    -5.7358 C       6      m6    -0.0231
   2390 C            6.1835    17.9917    -6.4168 C       6      m6     0.0023
   2391 C            6.2112    16.8821    -7.4059 C       6      m6    -0.0028
   2392 C            7.1393    19.0250    -6.8013 C       6      m6    -0.0051
   2393 C            7.3364    15.9883    -7.4180 C       6      m6     0.0012
   2394 C            7.6025    19.3926    -8.2001 C       6      m6    -0.0019
   2395 C            8.7576    16.3544    -7.6344 C       6      m6    -0.0192
   2396 H            9.0820    17.3307    -7.2928 H       6      m6     0.0178
   2397 C           10.1220    15.7147    -7.7898 C       6      m6    -0.0250
   2398 H           10.2945    15.7030    -8.8535 H       6      m6     0.0194
   2399 H           10.4468    19.3116    -4.9890 H      15     m15     0.0157
   2400 H           12.6799    17.6892    -4.2534 H      15     m15     0.0142
   2401 H           13.8349    19.4745    -9.4032 H       5      m5     0.0139
   2402 C           15.1226    16.1138    -5.6647 C      15     m15    -0.0417
   2403 H           15.6702    17.0604    -6.1752 H      15     m15     0.0165
   2404 H          -17.9258    18.8631    -6.8663 H      26     m26     0.0215
   2405 C          -18.1309   -16.1497    -3.5379 C      26     m26     0.0017
   2406 C          -17.2701   -16.5851    -2.3918 C      26     m26    -0.0154
   2407 H          -17.3306   -15.9072    -1.6322 H      26     m26     0.0160
   2408 C          -17.0959   -18.4567    -3.7826 C      26     m26     0.0037
   2409 C          -16.9237   -17.8506    -2.4310 C      26     m26    -0.0185
   2410 C          -16.5849   -19.6360    -4.1205 C      26     m26    -0.0183
   2411 H          -16.2598   -18.2660    -1.8862 H      26     m26     0.0179
   2412 H          -16.6044   -18.9988    -0.4324 H       1      m1     0.0143
   2413 H          -16.0297   -19.7770    -2.9790 H      26     m26     0.0131
   2414 C          -14.4272   -17.1426    -4.1173 C      27     m27    -0.0207
   2415 C          -14.2761   -15.8067    -3.5919 C      27     m27     0.0057
   2416 C          -13.7734   -15.4597    -2.2177 C      27     m27    -0.0273
   2417 C          -13.3356   -19.5572    -3.0605 C      27     m27    -0.0172
   2418 C          -13.4445   -18.0852    -3.5429 C      27     m27     0.0028
   2419 C          -12.6003   -17.5227    -2.6190 C      27     m27    -0.0001
   2420 C          -12.6488   -16.1959    -1.9458 C      27     m27     0.0048
   2421 C          -12.3611   -16.2191    -0.4888 C      27     m27    -0.0213
   2422 C          -11.3677   -18.1314    -2.2804 C      27     m27    -0.0010
   2423 C          -11.1560   -16.8900    -0.1981 C      27     m27    -0.0190
   2424 C          -11.0750   -19.5102    -2.2924 C      27     m27     0.0053
   2425 C          -10.4859   -17.8003    -1.0039 C      27     m27     0.0029
   2426 C           -9.7884   -18.8699    -0.4132 C      27     m27    -0.0163
   2427 H           -5.7050   -17.7772    -2.1979 H       7      m7     0.0159
   2428 H           -5.5705   -19.7261    -0.7180 H       7      m7     0.0194
   2429 C           -5.1934   -18.7228    -2.6782 C       7      m7    -0.0176
   2430 C           -5.0534   -19.6847    -1.6198 C       7      m7    -0.0125
   2431 H           -5.5268   -17.2816    -5.1008 H       7      m7     0.0142
   2432 C           -4.3473   -18.9769    -3.8315 C       7      m7     0.0070
   2433 H           -1.6996   -16.2546    -3.6405 H       5      m5     0.0149
   2434 C           -0.7534   -16.5754    -4.3557 C       5      m5    -0.0140
   2435 H           -1.3267   -17.2210    -2.3895 H       5      m5     0.0159
   2436 C           -0.3836   -18.1395    -2.6360 C       5      m5    -0.0117
   2437 C           -0.1207   -17.8335    -3.9069 C       5      m5     0.0047
   2438 H            0.5504   -19.7719    -0.9847 H       5      m5     0.0146
   2439 C            0.3773   -19.2277    -1.9309 C       5      m5    -0.0145
   2440 H            0.7807   -17.4773    -0.9775 H      18     m18     0.0229
   2441 C            0.8120   -17.2821     0.0610 C      18     m18    -0.0268
   2442 C            1.6402   -19.5250    -4.2437 C       5      m5     0.0051
   2443 H            3.4031   -17.6063    -1.3409 H      18     m18     0.0167
   2444 C            3.1395   -16.7904    -0.6186 C      18     m18    -0.0184
   2445 C            4.2220   -19.6685    -2.7110 C       6      m6    -0.0189
   2446 C            4.3037   -15.9807    -0.4513 C      18     m18    -0.0190
   2447 C            4.7236   -18.3977    -3.1781 C       6      m6    -0.0125
   2448 H            5.1744   -17.9917    -2.0528 H       6      m6     0.0117
   2449 H            5.2581   -16.0896    -1.0428 H      18     m18     0.0126
   2450 C            5.7313   -18.3117    -4.1946 C       6      m6     0.0037
   2451 H            6.3027   -15.8943    -3.9281 H       6      m6     0.0124
   2452 C            6.3695   -17.0492    -4.5385 C       6      m6    -0.0163
   2453 H            8.5584   -17.7671    -2.7536 H      15     m15     0.0200
   2454 H            8.5145   -17.8441    -0.2970 H      15     m15     0.0127
   2455 C            9.1605   -18.5291    -1.2085 C      15     m15    -0.0164
   2456 C            8.7596   -18.6298    -2.4805 C      15     m15    -0.0147
   2457 C            9.3870   -19.8147    -0.4338 C      15     m15     0.0023
   2458 C            9.6978   -19.0213    -3.5706 C      15     m15    -0.0213
   2459 H           11.8756   -16.7001    -2.0996 H       5      m5     0.0174
   2460 C           11.8013   -16.0464    -3.0693 C       5      m5    -0.0139
   2461 H           12.4784   -18.0692    -4.2380 H       5      m5     0.0157
   2462 C           12.4088   -16.9699    -3.9327 C       5      m5    -0.0177
   2463 H           13.5037   -19.6033    -1.6852 H       1      m1     0.0180
   2464 C           14.3904   -19.2020    -1.1183 C       1      m1    -0.0210
   2465 C           15.6118   -19.6571    -1.6248 C       1      m1     0.0050
   2466 C          -18.1561   -11.7310    -2.3248 C       2      m2    -0.0147
   2467 H          -17.3266   -12.3960    -2.5025 H       2      m2     0.0185
   2468 C          -15.8824   -12.5825    -4.5559 C      27     m27    -0.0009
   2469 C          -15.9048   -11.4099    -3.9793 C      27     m27     0.0026
   2470 C          -15.1320   -13.6848    -4.2039 C      27     m27     0.0016
   2471 H          -13.8001   -14.6100    -1.7145 H      27     m27     0.0188
   2472 C          -14.0409   -12.8715    -3.4711 C      27     m27    -0.0201
   2473 C          -14.0801   -11.9025    -2.4733 C      27     m27    -0.0121
   2474 H          -13.2335   -13.4492    -3.4322 H      27     m27     0.0183
   2475 H          -13.3265   -11.7617    -1.3208 H      27     m27     0.0089
   2476 H          -10.3314   -13.0067    -3.6487 H      32     m32     0.0182
   2477 C           -9.8410   -12.2791    -4.0581 C      32     m32    -0.0267
   2478 H           -9.1777   -14.2141    -2.4353 H      32     m32     0.0159
   2479 C           -8.4376   -12.5973    -3.6364 C      32     m32     0.0034
   2480 C           -8.2952   -13.8172    -2.8335 C      32     m32    -0.0191
   2481 C           -7.2576   -12.1891    -4.5002 C      32     m32    -0.0021
   2482 C           -7.0228   -14.0709    -2.2375 C      32     m32    -0.0196
   2483 H           -6.9203   -14.6050    -1.3009 H      32     m32     0.0141
   2484 C           -5.8727   -12.7938    -4.4025 C      32     m32    -0.0065
   2485 C           -5.8784   -13.6557    -3.2393 C      32     m32     0.0034
   2486 H           -5.6468   -12.0256    -0.1501 H       8      m8     0.0162
   2487 C           -4.7214   -14.4890    -3.4770 C      32     m32    -0.0201
   2488 H           -4.4339   -15.5044    -3.3069 H      32     m32     0.0177
   2489 H           -3.7710   -12.0753    -3.0938 H       3      m3     0.0189
   2490 H           -3.6238   -14.5479    -1.3194 H       3      m3     0.0144
   2491 C           -3.6842   -11.2702    -0.6118 C       8      m8    -0.0144
   2492 C           -2.9105   -12.5805    -3.1591 C       3      m3    -0.0235
   2493 C           -2.3601   -14.2900    -1.5046 C       3      m3    -0.0145
   2494 C           -2.2538   -11.9620    -4.3303 C       3      m3    -0.0017
   2495 C           -1.9400   -13.4276    -2.5333 C       3      m3     0.0062
   2496 C           -1.4176   -14.8089    -0.6737 C       3      m3    -0.0143
   2497 C           -0.5106   -13.2480    -2.9358 C       3      m3    -0.0049
   2498 C           -0.0724   -14.5642    -1.1300 C       3      m3    -0.0218
   2499 C           -0.1751   -12.9778    -4.2058 C       3      m3    -0.0047
   2500 H            0.4589   -15.0034    -0.3484 H       3      m3     0.0216
   2501 C            0.3435   -14.0056    -2.4311 C       3      m3     0.0051
   2502 H            0.0913   -12.6225    -0.4783 H       8      m8     0.0215
   2503 C            1.1403   -12.6227    -4.4853 C       3      m3     0.0022
   2504 C            1.8732   -13.9429    -2.4626 C       3      m3    -0.0151
   2505 C            2.3158   -12.9478    -3.3981 C       3      m3    -0.0221
   2506 H            2.7106   -14.5610    -1.8620 H       3      m3     0.0171
   2507 H            3.0334   -12.3578    -3.8496 H       3      m3     0.0160
   2508 H            5.9275   -10.7835    -1.8196 H       2      m2     0.0133
   2509 C           11.6478   -13.3134    -2.6174 C       5      m5     0.0002
   2510 C           11.7501   -14.6591    -3.2568 C       5      m5    -0.0001
   2511 C           11.7947   -13.7834    -1.1675 C       5      m5    -0.0023
   2512 C           12.2892   -12.1605    -3.3474 C       5      m5    -0.0191
   2513 H           13.0787   -11.4432    -2.8850 H       5      m5     0.0169
   2514 C           12.6939   -14.1618    -4.3281 C       5      m5     0.0000
   2515 H           12.6584   -15.2414     0.6221 H       5      m5     0.0190
   2516 H           14.6863   -11.8817    -1.7572 H      12     m12     0.0171
   2517 C           14.1624   -11.7645    -0.6520 C      12     m12    -0.0123
   2518 H           15.2338   -15.1425    -3.0724 H      26     m26     0.0192
   2519 C           16.1296   -13.2397    -0.4112 C      12     m12    -0.0151
   2520 H           16.5033   -13.2444    -1.6344 H      12     m12     0.0135
   2521 C           16.0232   -15.2700    -3.7355 C      26     m26    -0.0164
   2522 H           17.3671   -12.7643    -3.1833 H       2      m2     0.0176
   2523 C           17.4451   -11.8391    -2.8065 C       2      m2    -0.0205
   2524 C           17.4610   -15.1908    -3.2208 C      26     m26    -0.0176
   2525 H           17.7620   -14.5116    -2.4715 H      26     m26     0.0144
   2526 C          -17.9449   -10.3682    -1.7598 C       2      m2    -0.0151
   2527 H          -17.8878    -7.8111    -0.5982 H       2      m2     0.0164
   2528 H          -16.7726   -10.1212    -1.6485 H       2      m2     0.0138
   2529 H          -17.3833    -6.7542    -3.1657 H       2      m2     0.0211
   2530 C          -16.8823   -10.3322    -4.1942 C      27     m27    -0.0170
   2531 H          -16.8371    -9.5549    -3.3929 H      27     m27     0.0175
   2532 C          -16.5377    -6.8983    -3.8284 C       2      m2    -0.0243
   2533 H          -15.2197    -9.9927    -2.4788 H      27     m27     0.0128
   2534 C          -15.1332    -7.3123    -4.1883 C       2      m2     0.0043
   2535 C          -15.1780   -11.0735    -2.7339 C      27     m27    -0.0224
   2536 H          -14.7947    -7.2381    -0.9359 H       2      m2     0.0151
   2537 H          -14.8541    -9.5833    -4.1455 H       2      m2     0.0225
   2538 C          -14.4121    -8.6823    -4.0150 C       2      m2    -0.0244
   2539 H          -14.4029    -9.9787    -0.6146 H       2      m2     0.0171
   2540 C          -13.0404    -8.6563    -3.7721 C       2      m2    -0.0113
   2541 H          -12.4838    -9.6398    -3.4987 H       2      m2     0.0127
   2542 C          -12.0463    -7.6119    -3.8266 C       2      m2    -0.0224
   2543 H          -11.1857    -7.8692    -3.1882 H       2      m2     0.0140
   2544 H           -8.8581    -8.3842    -0.9399 H       1      m1     0.0139
   2545 H           -7.3522    -7.4902    -3.3375 H       1      m1     0.0114
   2546 C           -7.8706    -7.7932    -0.8066 C       1      m1    -0.0168
   2547 C           -7.5707    -7.2185    -2.1596 C       1      m1    -0.0169
   2548 H           -5.1707    -9.3042    -1.5778 H       3      m3     0.0163
   2549 H           -4.8275   -11.3046    -4.1565 H       3      m3     0.0202
   2550 C           -4.5856    -8.4349    -1.2639 C       3      m3    -0.0151
   2551 H           -3.9167   -11.3121    -1.4779 H       8      m8     0.0180
   2552 H           -4.2031    -8.4348    -3.2420 H       3      m3     0.0204
   2553 C           -4.0216    -7.8917    -2.4310 C       3      m3    -0.0238
   2554 C           -2.9741    -6.8770    -2.0344 C       3      m3     0.0039
   2555 C           -2.2277   -11.1314    -0.4820 C       8      m8    -0.0189
   2556 H           -1.6663   -10.5728    -1.1986 H       8      m8     0.0187
   2557 H            0.0177    -9.7012    -0.1231 H       3      m3     0.0186
   2558 C            1.0473    -7.7668    -0.5633 C       3      m3     0.0043
   2559 C            2.2132    -8.3427    -1.2460 C       3      m3    -0.0226
   2560 H            2.0210    -9.1759    -1.8288 H       3      m3     0.0167
   2561 C            2.8333    -7.4714    -2.3477 C       3      m3    -0.0158
   2562 H            3.8320    -7.6520    -2.7476 H       3      m3     0.0153
   2563 H            7.0442    -8.8434    -0.2639 H       2      m2     0.0149
   2564 C            6.6065    -9.9017    -2.0769 C       2      m2    -0.0199
   2565 C            7.0088    -9.3936    -3.4940 C       2      m2     0.0043
   2566 C            7.6087    -9.3239    -1.1966 C       2      m2    -0.0145
   2567 C            8.4321    -8.6878    -3.6635 C       2      m2    -0.0002
   2568 C            8.9091    -8.8481    -1.2124 C       2      m2     0.0028
   2569 C            9.4387    -8.7753    -2.7262 C       2      m2     0.0002
   2570 C            9.8427    -8.1270    -0.3838 C       2      m2    -0.0179
   2571 C           10.8575    -8.4625    -3.1710 C       2      m2     0.0046
   2572 C           11.2724    -7.8685    -4.3475 C       2      m2    -0.0209
   2573 C           11.2502    -8.5406    -0.6163 C       2      m2    -0.0187
   2574 C           11.8354    -8.5235    -1.9678 C       2      m2    -0.0059
   2575 H           12.2831    -7.6437    -4.5495 H       2      m2     0.0215
   2576 H           12.9096    -9.9010    -1.0388 H      12     m12     0.0197
   2577 C           13.1920    -7.8671    -2.0241 C       2      m2    -0.0031
   2578 H           13.2938   -10.1310    -3.8353 H       2      m2     0.0179
   2579 C           13.4218   -10.5771    -0.2558 C      12     m12    -0.0120
   2580 C           14.2094    -9.8695    -3.3679 C       2      m2    -0.0210
   2581 C           14.3772    -8.8270    -2.5162 C       2      m2     0.0017
   2582 C           15.2785   -10.5686    -4.0037 C       2      m2    -0.0161
   2583 C           15.6550    -8.4959    -2.3518 C       2      m2     0.0015
   2584 C           15.8362    -7.1892    -1.6210 C       2      m2     0.0011
   2585 C           16.5525   -10.6996    -3.2976 C       2      m2    -0.0001
   2586 C           16.8179    -9.4209    -2.6594 C       2      m2     0.0001
   2587 C           16.9693    -7.2797    -0.7699 C       2      m2    -0.0188
   2588 C           18.0257    -9.2713    -1.8324 C       2      m2     0.0040
   2589 C           18.1233    -8.0615    -1.2478 C       2      m2    -0.0194
   2590 C          -16.6781    -2.6708    -4.3376 C       2      m2     0.0006
   2591 H          -16.0058    -2.4725    -2.0480 H       2      m2     0.0196
   2592 C          -15.8201    -2.4748    -3.1390 C       2      m2    -0.0193
   2593 C          -14.0408    -6.3046    -4.4861 C       2      m2    -0.0039
   2594 H          -13.8324    -4.6916    -3.1844 H       2      m2     0.0236
   2595 C          -13.7325    -3.1089    -1.6480 C       2      m2    -0.0002
   2596 C          -13.6247    -4.3780    -2.2369 C       2      m2    -0.0223
   2597 C          -12.8759    -2.8783    -0.3791 C       2      m2    -0.0017
   2598 C          -12.8205    -5.1999    -1.4977 C       2      m2    -0.0141
   2599 C          -12.7141    -6.4427    -4.3724 C       2      m2    -0.0020
   2600 C          -12.3650    -5.1472    -0.0245 C       2      m2    -0.0116
   2601 H          -12.7135    -6.2746    -2.1560 H       2      m2     0.0163
   2602 H          -12.4007    -3.5587    -3.7810 H       2      m2     0.0216
   2603 H          -10.8424    -4.7182    -2.1375 H       2      m2     0.0215
   2604 C          -10.2237    -4.4172    -2.7812 C       2      m2    -0.0218
   2605 C          -10.1991    -4.9628    -4.3484 C       2      m2    -0.0115
   2606 H          -10.2520    -2.5598    -1.9223 H       2      m2     0.0214
   2607 C          -10.0364    -3.0768    -2.7800 C       2      m2    -0.0171
   2608 C           -6.7674    -5.0626    -1.2750 C       1      m1     0.0054
   2609 C           -6.3725    -6.4154    -1.8378 C       1      m1    -0.0193
   2610 C           -6.0136    -3.8980    -1.3335 C       1      m1    -0.0181
   2611 C           -5.9627    -3.3959    -0.0218 C       1      m1    -0.0108
   2612 H           -5.7090    -6.6948    -2.4960 H       1      m1     0.0218
   2613 H           -5.3313    -3.8986    -2.3333 H       1      m1     0.0207
   2614 C           -3.2668    -2.5254    -3.9513 C       3      m3    -0.0021
   2615 C           -3.1513    -3.9481    -4.1544 C       3      m3    -0.0044
   2616 C           -2.8604    -6.2647    -0.7198 C       3      m3    -0.0011
   2617 C           -2.6401    -2.5712    -1.5920 C       3      m3    -0.0225
   2618 C           -2.4438    -4.9892    -0.5635 C       3      m3     0.0034
   2619 C           -2.3800    -3.9254    -1.6573 C       3      m3     0.0012
   2620 C           -2.7486    -4.6540    -2.8650 C       3      m3    -0.0020
   2621 C           -2.2742    -6.0631    -3.0358 C       3      m3    -0.0012
   2622 C            0.8785    -6.3912    -0.0932 C       3      m3    -0.0001
   2623 C            1.9083    -5.5687    -0.9120 C       3      m3     0.0042
   2624 C            2.5382    -4.5382    -0.2558 C       3      m3    -0.0149
   2625 C            2.6087    -6.0502    -2.1566 C       3      m3    -0.0221
   2626 H            3.4658    -4.3413    -0.9951 H       3      m3     0.0154
   2627 H            3.4289    -2.3321    -2.8928 H       3      m3     0.0195
   2628 H            3.1044    -5.4296    -2.7219 H       3      m3     0.0180
   2629 C            3.6599    -2.4258    -4.0435 C       3      m3    -0.0168
   2630 H            5.2503    -2.8514    -0.4717 H       3      m3     0.0153
   2631 C            4.8376    -2.5141    -4.3729 C       3      m3    -0.0135
   2632 H            5.5934    -2.9302    -3.5658 H       3      m3     0.0169
   2633 C            7.9674    -3.9415    -4.3211 C       3      m3    -0.0128
   2634 C            8.2459    -4.1562    -2.9491 C       3      m3    -0.0179
   2635 H            8.0902    -4.8726    -2.0744 H       3      m3     0.0169
   2636 C            8.2893    -2.9362    -2.1145 C       3      m3     0.0007
   2637 C            8.7845    -2.8646    -0.6384 C       3      m3    -0.0220
   2638 H            9.2011    -3.6448    -0.0910 H       3      m3     0.0150
   2639 H           12.5542    -5.9093    -1.5332 H       2      m2     0.0169
   2640 C           12.7993    -3.3348    -0.3828 C       2      m2    -0.0146
   2641 H           13.1087    -4.5801    -2.1209 H       2      m2     0.0205
   2642 C           13.2436    -3.6154    -1.7571 C       2      m2    -0.0159
   2643 C           13.4463    -6.4426    -1.7698 C       2      m2    -0.0219
   2644 C           13.7678    -5.0525    -4.1432 C       2      m2    -0.0005
   2645 C           13.8178    -3.0099    -2.6923 C       2      m2     0.0010
   2646 C           14.1123    -3.6936    -4.0980 C       2      m2    -0.0001
   2647 C           14.8770    -6.1363    -2.0470 C       2      m2     0.0001
   2648 C           15.0749    -5.8020    -3.4549 C       2      m2    -0.0015
   2649 C           16.3142    -5.9356    -4.2050 C       2      m2     0.0030
   2650 H           16.9832    -6.7671     0.1577 H       2      m2     0.0182
   2651 C           17.6088    -5.4163    -3.9839 C       2      m2    -0.0192
   2652 H           17.6203    -4.6959    -3.0981 H       2      m2     0.0190
   2653 H          -18.4253    -2.0770    -4.8255 H       2      m2     0.0182
   2654 C          -14.5316    -1.9936    -3.7146 C       2      m2    -0.0002
   2655 H          -13.7840     0.3136    -2.7328 H       2      m2     0.0180
   2656 C          -13.7094    -1.8999    -2.4437 C       2      m2    -0.0019
   2657 C          -13.5112    -0.5513    -2.0455 C       2      m2    -0.0229
   2658 H          -13.3189     2.0434    -2.0298 H       1      m1     0.0152
   2659 C          -12.7235    -0.5063    -0.8352 C       2      m2     0.0042
   2660 C          -11.7074     0.4902    -0.4006 C       2      m2    -0.0184
   2661 H          -11.4921     1.2111    -1.2470 H       2      m2     0.0126
   2662 H           -9.8198     1.4199    -2.3619 H       2      m2     0.0135
   2663 C           -9.3200     1.7382    -3.4001 C       2      m2    -0.0286
   2664 C           -9.2677    -2.2531    -3.7946 C       2      m2     0.0071
   2665 H           -8.2422     1.8008    -3.0543 H       2      m2     0.0170
   2666 C           -8.4951    -1.4458    -3.1424 C       2      m2    -0.0241
   2667 H           -7.5578     1.0692    -0.9348 H       1      m1     0.0131
   2668 H           -7.5902    -0.7011    -2.9596 H       2      m2     0.0162
   2669 H           -5.8359     0.8165    -2.9422 H       3      m3     0.0113
   2670 H           -5.1507     1.8975    -4.5788 H       2      m2     0.0146
   2671 C           -4.9681     0.0701    -3.2505 C       3      m3    -0.0188
   2672 H           -4.3289    -0.6654    -1.6356 H       3      m3     0.0145
   2673 C           -4.1724    -0.7257    -2.6826 C       3      m3    -0.0157
   2674 C           -3.2611    -1.9641    -2.6464 C       3      m3    -0.0002
   2675 H           -2.6696     0.8576    -3.7302 H       3      m3     0.0164
   2676 H           -2.5589     2.0713    -1.5668 H       1      m1     0.0186
   2677 H           -2.9782    -2.0549    -0.7087 H       3      m3     0.0142
   2678 H           -1.7889    -0.4047    -1.0725 H       3      m3     0.0195
   2679 C           -0.7602    -0.4397    -1.1376 C       3      m3    -0.0216
   2680 C           -0.5693     1.1477    -4.3425 C       3      m3    -0.0017
   2681 C           -0.1221     1.2816    -2.9030 C       3      m3    -0.0054
   2682 C           -0.0924    -1.2557    -0.0916 C       3      m3     0.0012
   2683 C            0.2210     0.2221    -1.8519 C       3      m3     0.0028
   2684 H            0.5351    -2.2275    -3.9158 H       3      m3     0.0208
   2685 C            1.7382    -0.0638    -1.8047 C       3      m3    -0.0053
   2686 C            2.2702    -0.8844    -1.1025 C       3      m3    -0.0038
   2687 H            2.0259    -0.1930    -3.7388 H       3      m3     0.0218
   2688 C            2.6504     0.1907    -2.9128 C       3      m3    -0.0154
   2689 H            2.6749     1.6472    -0.8193 H       1      m1     0.0191
   2690 C            3.7509    -1.2371    -1.0590 C       3      m3    -0.0044
   2691 C            3.8191     1.4152    -0.5392 C       1      m1    -0.0332
   2692 C            4.0690     0.5519    -3.0624 C       3      m3    -0.0143
   2693 C            4.3019    -2.2665    -0.1876 C       3      m3    -0.0218
   2694 C            4.5283    -0.4468    -2.2601 C       3      m3    -0.0156
   2695 H            4.6988     1.0820    -3.7426 H       3      m3     0.0183
   2696 H            3.5961     0.3891    -0.4274 H       1      m1     0.0262
   2697 C            4.8368     2.1137    -1.6310 C       1      m1    -0.0077
   2698 H            5.6106    -0.6295    -2.3875 H       3      m3     0.0195
   2699 C            8.2858    -1.4691    -4.2220 C       3      m3     0.0017
   2700 C            8.0401     0.9556    -4.3840 C       3      m3    -0.0238
   2701 C            8.5286    -1.6476    -2.8321 C       3      m3    -0.0012
   2702 C            8.6154     1.0849    -3.1230 C       3      m3     0.0069
   2703 C            8.7387    -0.2505    -2.3249 C       3      m3    -0.0009
   2704 C            8.7765    -0.2218    -0.8887 C       3      m3     0.0008
   2705 C            9.3858    -1.4396    -0.3182 C       3      m3    -0.0176
   2706 C            9.3860     1.1941    -0.3762 C       3      m3    -0.0203
   2707 C            9.6126     2.2514    -1.3004 C       3      m3    -0.0091
   2708 H           11.5033     0.8009    -4.7675 H       2      m2     0.0214
   2709 C           11.7935     1.6979    -4.4582 C       2      m2    -0.0236
   2710 H           12.1279     0.9931    -1.3533 H       2      m2     0.0231
   2711 H           12.5923    -1.0562    -3.9714 H       2      m2     0.0220
   2712 C           12.8931     0.5205    -1.5351 C       2      m2    -0.0254
   2713 C           13.0203    -1.7864    -0.1377 C       2      m2    -0.0169
   2714 C           13.2354    -0.9516    -1.3067 C       2      m2     0.0066
   2715 C           13.4107     1.3881    -2.6482 C       2      m2    -0.0059
   2716 C           13.5639    -0.6988    -3.6763 C       2      m2    -0.0180
   2717 C           13.9768    -1.6011    -2.4635 C       2      m2     0.0025
   2718 C           14.1554     0.7253    -3.8110 C       2      m2     0.0077
   2719 C          -18.2475     4.9240    -3.1698 C       1      m1    -0.0164
   2720 H          -17.7788     2.8283    -3.6731 H       1      m1     0.0191
   2721 C          -17.5806     3.6421    -3.0965 C       1      m1    -0.0196
   2722 C          -17.6316     6.1208    -2.6405 C       1      m1     0.0057
   2723 C          -16.7337     6.2331    -1.6152 C       1      m1    -0.0027
   2724 C          -16.2938     3.5295    -2.3506 C       1      m1     0.0052
   2725 C          -16.0715     4.9114    -1.5330 C       1      m1     0.0000
   2726 H          -14.8324     2.8373    -3.8322 H       1      m1     0.0205
   2727 C          -15.0988     3.1361    -2.8953 C       1      m1    -0.0230
   2728 C          -15.0862     4.8763    -0.6485 C       1      m1     0.0001
   2729 C          -13.9862     3.7159    -0.8445 C       1      m1    -0.0011
   2730 C          -14.0132     2.8777    -1.8317 C       1      m1    -0.0185
   2731 H          -13.2652     3.5300    -3.9380 H       2      m2     0.0200
   2732 H          -12.9095     6.0055    -3.1730 H       2      m2     0.0178
   2733 C          -11.8821     4.7482    -4.4613 C       2      m2    -0.0027
   2734 C          -11.8963     5.4845    -3.1812 C       2      m2    -0.0177
   2735 H          -11.2538     2.6358    -0.0169 H       1      m1     0.0152
   2736 C          -10.8081     6.2358    -2.5663 C       2      m2    -0.0143
   2737 H           -9.0010     4.8248    -1.5230 H       1      m1     0.0183
   2738 C           -9.1757     3.0679    -4.1778 C       2      m2    -0.0149
   2739 C           -8.0096     5.1284    -1.1215 C       1      m1    -0.0197
   2740 C           -6.6996     4.9230    -1.4776 C       1      m1    -0.0167
   2741 H           -6.1684     5.3811    -2.3244 H       1      m1     0.0164
   2742 C           -5.4586     4.8207    -0.7174 C       1      m1     0.0004
   2743 H           -4.3130     3.5466    -2.1329 H       1      m1     0.0163
   2744 C           -4.4121     4.0746    -1.2053 C       1      m1    -0.0249
   2745 H           -3.6701     7.0179    -2.3005 H       3      m3     0.0166
   2746 C           -3.5085     3.4758    -0.0766 C       1      m1     0.0082
   2747 C           -2.6281     2.2929    -0.5354 C       1      m1    -0.0213
   2748 H           -2.4088     5.0247    -2.5913 H       3      m3     0.0168
   2749 C           -1.7897     5.4198    -1.8160 C       3      m3    -0.0228
   2750 C           -0.7653     4.7847    -0.9377 C       3      m3     0.0032
   2751 C           -0.4951     3.2819    -1.2481 C       3      m3    -0.0114
   2752 C           -0.4072     2.4132    -2.3475 C       3      m3    -0.0082
   2753 C            0.2667     5.6955    -0.5469 C       3      m3    -0.0188
   2754 H            1.2378     5.4001    -2.6951 H       1      m1     0.0191
   2755 H            1.0246     4.6473    -0.5798 H       3      m3     0.0161
   2756 C            1.9610     5.8056    -3.3567 C       1      m1    -0.0189
   2757 C            3.2128     5.1666    -3.8188 C       1      m1    -0.0020
   2758 H            2.9582     3.0972    -4.0083 H       1      m1     0.0176
   2759 C            3.7463     3.8120    -4.3677 C       1      m1    -0.0186
   2760 H            3.9138     2.7839    -2.0167 H       1      m1     0.0170
   2761 H            4.5646     5.9290    -0.4762 H       1      m1     0.0177
   2762 C            4.4178     5.7533    -3.6169 C       1      m1    -0.0026
   2763 C            5.8934     3.9037    -0.2301 C       1      m1    -0.0018
   2764 C            5.7411     5.3973    -4.3138 C       1      m1     0.0069
   2765 C            6.0888     2.6508    -1.0920 C       1      m1    -0.0206
   2766 C            6.4565     5.2190    -0.0804 C       1      m1     0.0014
   2767 H            6.8935     2.2625    -1.4251 H       1      m1     0.0246
   2768 C            7.0681     6.1439    -4.2020 C       1      m1    -0.0158
   2769 C            7.9649     5.6576     0.0716 C       1      m1    -0.0206
   2770 H            8.8753     3.1557    -3.1896 H       3      m3     0.0188
   2771 C            9.0321     2.3077    -2.5892 C       3      m3    -0.0224
   2772 H            9.8201     3.4295    -0.9427 H       3      m3     0.0117
   2773 C           12.4684     3.7422    -3.2383 C       2      m2    -0.0237
   2774 C           12.6838     2.3090    -3.4888 C       2      m2     0.0068
   2775 C           12.8539     4.4983    -4.3946 C       2      m2     0.0038
   2776 H           12.3375     4.2243    -2.2678 H       2      m2     0.0147
   2777 C           14.2162     4.8590    -4.4120 C       2      m2    -0.0225
   2778 H           15.0035     5.2152    -3.7157 H       2      m2     0.0127
   2779 H           15.9349     4.2100    -0.9248 H       1      m1     0.0124
   2780 C           16.6369     4.6687    -0.0931 C       1      m1    -0.0095
   2781 H           17.4838     2.5744    -0.3543 H       1      m1     0.0194
   2782 C           17.5313     3.5905    -0.0917 C       1      m1    -0.0202
   2783 H           17.8162     5.2132    -3.8687 H       1      m1     0.0155
   2784 H          -18.2496     9.8955    -3.9852 H       1      m1     0.0180
   2785 C          -17.8963     7.3466    -3.4427 C       1      m1    -0.0248
   2786 C          -17.7102    10.0958    -3.1789 C       1      m1    -0.0180
   2787 H          -17.8674     9.0557    -0.5702 H       1      m1     0.0188
   2788 C          -17.1998     8.4586    -1.1274 C       1      m1    -0.0201
   2789 C          -17.1418     8.6312    -2.6888 C       1      m1    -0.0097
   2790 C          -16.4601     7.3178    -0.5972 C       1      m1     0.0050
   2791 C          -16.2956    10.5410    -3.1957 C       1      m1     0.0059
   2792 H          -16.1318     8.1916    -2.8074 H       1      m1     0.0226
   2793 C          -15.9998    11.0852    -1.9880 C       1      m1    -0.0030
   2794 C          -15.3875     9.9837    -4.1702 C       1      m1    -0.0188
   2795 C          -15.2069     7.0671     0.1445 C       1      m1    -0.0177
   2796 C          -14.7711    11.0608    -1.7623 C       1      m1    -0.0001
   2797 C          -14.0706     9.8772    -3.6588 C       1      m1    -0.0214
   2798 C          -13.6333    10.3073    -2.4118 C       1      m1     0.0029
   2799 H          -13.4861     9.1976    -4.1302 H       1      m1     0.0158
   2800 C          -12.2122    10.0625    -2.0339 C       1      m1    -0.0159
   2801 C          -11.9888    10.0359    -0.6821 C       1      m1    -0.0215
   2802 H          -11.9082     9.8647    -3.1448 H       1      m1     0.0138
   2803 H          -11.3022     9.6364    -0.0973 H       1      m1     0.0172
   2804 H          -10.8153     6.6005    -1.4797 H       2      m2     0.0150
   2805 H           -9.7052    11.5931    -3.8170 H      28     m28     0.0163
   2806 C           -9.9406     6.8072    -3.5031 C       2      m2    -0.0196
   2807 H           -8.8845     7.2147    -3.4728 H       2      m2     0.0156
   2808 H           -7.8785     9.8380    -3.2561 H      28     m28     0.0160
   2809 C           -7.6860    10.5658    -3.9430 C      28     m28    -0.0181
   2810 C           -6.2737    10.6423    -4.4838 C      28     m28     0.0030
   2811 H           -5.3600     8.5629    -4.3280 H      28     m28     0.0157
   2812 H           -5.3381     8.3880     0.7592 H       1      m1     0.0201
   2813 H           -4.6927     9.1991    -1.4828 H       3      m3     0.0156
   2814 H           -4.2126     6.7769    -0.4317 H       3      m3     0.0228
   2815 C           -3.6298     8.7955    -1.3439 C       3      m3    -0.0161
   2816 C           -3.5815     7.3179    -1.1433 C       3      m3    -0.0297
   2817 C           -2.6571    10.7613    -2.6392 C       3      m3    -0.0223
   2818 C           -2.6055     9.5504    -1.8473 C       3      m3     0.0023
   2819 C           -2.1143     6.7461    -1.2788 C       3      m3     0.0053
   2820 C           -1.1323     8.9777    -1.5860 C       3      m3    -0.0039
   2821 C           -0.9916     7.6567    -1.1763 C       3      m3    -0.0029
   2822 C           -0.2601    10.9480    -1.8507 C       3      m3    -0.0199
   2823 C           -0.0359     9.5889    -1.6284 C       3      m3     0.0011
   2824 C            0.4117     7.0509    -0.7106 C       3      m3     0.0047
   2825 H            1.4654     7.7748    -3.9120 H       1      m1     0.0177
   2826 C            1.3981     8.9551    -1.6628 C       3      m3    -0.0197
   2827 C            1.6839     7.7029    -1.0559 C       3      m3    -0.0189
   2828 H            1.9621     9.6808    -2.1261 H       3      m3     0.0181
   2829 C            2.2043     7.0964    -3.6788 C       1      m1    -0.0200
   2830 H            2.6162     7.2977    -0.8108 H       3      m3     0.0182
   2831 C            3.2533     9.0241    -4.1954 C       1      m1    -0.0234
   2832 C            3.4373     7.6938    -3.8244 C       1      m1     0.0024
   2833 C            4.4133     9.7079    -3.7819 C       1      m1    -0.0101
   2834 C            4.4956     7.0827    -3.4884 C       1      m1    -0.0027
   2835 H            3.9606    10.9583    -3.9754 H       1      m1     0.0150
   2836 C            5.4216     9.1569    -2.9734 C       1      m1    -0.0024
   2837 C            5.7781     7.8925    -3.3149 C       1      m1     0.0029
   2838 C            6.3179    10.1455    -2.6441 C       1      m1     0.0042
   2839 C            6.9232     7.4533    -3.6861 C       1      m1    -0.0152
   2840 H            7.7373     8.2427    -3.8799 H       1      m1     0.0169
   2841 C            7.0446     8.2538     0.1453 C       1      m1     0.0005
   2842 C            7.5601    10.8990    -2.6218 C       1      m1    -0.0017
   2843 C            8.0467     7.1261    -0.1021 C       1      m1    -0.0128
   2844 H            9.1503     7.4863    -0.5096 H       1      m1     0.0157
   2845 C            9.0106    10.3460    -2.3992 C       1      m1    -0.0002
   2846 C            9.5754    10.3905    -0.9538 C       1      m1    -0.0017
   2847 C            9.9267    10.2913    -3.6609 C       1      m1    -0.0213
   2848 H           10.1046     9.5491    -4.5188 H       1      m1     0.0132
   2849 C           12.2227    10.4799    -0.9493 C       1      m1    -0.0214
   2850 H           12.3833    10.0714    -1.8813 H       1      m1     0.0162
   2851 H           12.3730    10.5724    -3.6909 H      15     m15     0.0114
   2852 C           13.2632    10.9617    -0.1875 C       1      m1     0.0043
   2853 C           14.6112    10.5254    -0.7903 C       1      m1    -0.0299
   2854 H           14.5463     9.7326    -1.6353 H       1      m1     0.0132
   2855 H           16.5994     6.9554    -0.0159 H       1      m1     0.0179
   2856 H           17.3124    10.7676    -2.3443 H       1      m1     0.0139
   2857 H           18.2444     7.6511    -4.1495 H       1      m1     0.0177
   2858 C           18.3180    11.0548    -2.3954 C       1      m1    -0.0152
   2859 C          -18.2429    11.1101    -1.0007 C       1      m1    -0.0237
   2860 C          -16.7993    11.3044    -0.8004 C       1      m1     0.0039
   2861 H          -16.5021    13.3200    -1.1072 H       1      m1     0.0223
   2862 C          -16.3839    15.6352    -1.0106 C       1      m1     0.0057
   2863 C          -15.8153    14.1888    -1.2430 C       1      m1    -0.0199
   2864 C          -14.4701    14.0306    -1.3109 C       1      m1     0.0029
   2865 C          -14.3675    11.3261    -0.3024 C       1      m1    -0.0002
   2866 C          -13.7685    15.5107    -1.0789 C       1      m1    -0.0006
   2867 C          -13.6954    12.8673    -0.7991 C       1      m1     0.0042
   2868 C          -12.4278    15.3387    -1.0121 C       1      m1    -0.0036
   2869 C          -12.2739    13.0070    -0.4720 C       1      m1    -0.0245
   2870 H          -11.7512    12.5072     0.1769 H       1      m1     0.0211
   2871 C          -11.5887    14.2466    -0.9030 C       1      m1     0.0075
   2872 C          -10.2378    13.9749    -1.0654 C       1      m1    -0.0288
   2873 H          -10.1402    13.0771    -1.3228 H       1      m1     0.0207
   2874 C           -9.4178    15.2079    -1.3255 C       1      m1     0.0052
   2875 C           -8.7433    11.3688    -4.1915 C      28     m28    -0.0199
   2876 H           -7.7436    13.5561    -1.2910 H       1      m1     0.0200
   2877 C           -7.1483    14.3874    -1.8238 C       1      m1    -0.0513
   2878 H           -7.1422    13.9035    -2.9390 H       1      m1     0.0225
   2879 H           -6.2251    14.5427    -1.3732 H       1      m1     0.0219
   2880 H           -3.5765    11.1507    -2.8901 H       3      m3     0.0190
   2881 C           -1.3356    11.4359    -2.6836 C       3      m3    -0.0150
   2882 H           -1.1166    12.2699    -3.3061 H       3      m3     0.0161
   2883 H            0.4904    11.7796    -1.8426 H       3      m3     0.0152
   2884 C            0.9719    15.0093    -2.6072 C       7      m7    -0.0014
   2885 C            1.3852    14.7486    -3.9936 C       7      m7    -0.0023
   2886 C            2.1138    15.4558    -1.7465 C       7      m7    -0.0172
   2887 C            2.9003    14.9147    -4.2462 C       7      m7     0.0077
   2888 H            4.0764    16.2827    -1.1500 H       7      m7     0.0098
   2889 H            4.6228    10.9613    -1.8957 H       1      m1     0.0235
   2890 H            5.0115    13.6796    -0.4196 H       1      m1     0.0180
   2891 H            4.8328    15.3127    -3.7892 H       7      m7     0.0234
   2892 C            5.3920    11.1266    -2.3277 C       1      m1    -0.0279
   2893 C            5.5029    13.6701    -1.2769 C       1      m1    -0.0241
   2894 C            5.8363    12.4726    -2.0337 C       1      m1     0.0065
   2895 C            6.6512    14.4102    -1.4854 C       1      m1    -0.0132
   2896 C            7.3240    12.2681    -2.7886 C       1      m1     0.0002
   2897 C            7.6129    14.7375    -2.7152 C       1      m1     0.0014
   2898 C            8.1881    13.3955    -3.0375 C       1      m1     0.0003
   2899 C            9.5077    13.0010    -3.7710 C       1      m1     0.0029
   2900 C            9.6638    14.1812    -4.4557 C       1      m1    -0.0153
   2901 C           10.1681    11.7244    -3.9232 C       1      m1    -0.0165
   2902 C           10.9433    11.2524    -0.7689 C       1      m1    -0.0150
   2903 H           10.9209    11.9121    -1.6231 H       1      m1     0.0197
   2904 H           12.5372    13.4528    -2.0398 H      15     m15     0.0161
   2905 C           12.8343    11.7832    -3.7845 C      15     m15    -0.0159
   2906 C           12.8600    13.0214    -3.0480 C      15     m15    -0.0153
   2907 H           13.2836    13.2780    -0.4618 H       1      m1     0.0147
   2908 C           13.4658    15.2020    -3.4458 C      15     m15    -0.0211
   2909 C           14.0017    13.8868    -3.8759 C      15     m15    -0.0009
   2910 H           14.5577    15.2134    -1.6272 H      15     m15     0.0201
   2911 H           15.0774    11.3728    -1.3018 H       1      m1     0.0170
   2912 H           16.2457    11.8277     0.0291 H       1      m1     0.0169
   2913 H           16.2168    14.1445    -1.3488 H       1      m1     0.0140
   2914 C           16.4071    14.5007    -0.1945 C       1      m1    -0.0206
   2915 C          -17.7956    15.8011    -1.5654 C       1      m1    -0.0031
   2916 H          -18.2217    16.2463    -3.5771 H       1      m1     0.0253
   2917 H          -16.3451    17.8070    -0.8970 H       1      m1     0.0204
   2918 C          -16.1098    17.1022    -4.0621 C      26     m26    -0.0170
   2919 C          -15.8020    16.8532    -0.9302 C       1      m1    -0.0212
   2920 C          -15.5320    15.8314    -4.2260 C      26     m26    -0.0173
   2921 H          -15.3587    19.7984    -0.3058 H       1      m1     0.0139
   2922 H          -16.0473    17.9075    -3.4507 H      26     m26     0.0195
   2923 H          -14.5920    15.7109    -4.6312 H      26     m26     0.0194
   2924 C          -14.2927    16.6252    -0.7967 C       1      m1     0.0007
   2925 H          -14.1577    19.6548    -3.3505 H      27     m27     0.0169
   2926 C          -12.0660    19.6705    -3.1609 C      27     m27    -0.0141
   2927 H          -11.9887    18.5454    -3.4925 H      27     m27     0.0188
   2928 C          -11.7574    16.5062    -0.6402 C       1      m1     0.0024
   2929 C          -10.2419    16.3358    -0.7025 C       1      m1    -0.0209
   2930 H           -9.8629    16.7901     0.2141 H       1      m1     0.0194
   2931 C           -9.7032    19.7352    -2.1612 C      27     m27    -0.0161
   2932 H           -9.3755    18.9638    -2.8607 H      27     m27     0.0183
   2933 C           -9.1720    19.7593    -0.9512 C      27     m27    -0.0167
   2934 H           -8.5025    18.8220    -0.6135 H      27     m27     0.0141
   2935 H           -8.1417    17.7592    -4.3595 H      28     m28     0.0162
   2936 C           -8.1889    15.6036    -1.6839 C       1      m1    -0.0018
   2937 C           -7.4316    16.6182    -2.2114 C       1      m1    -0.0003
   2938 H           -7.2805    18.6716    -2.5458 H       1      m1     0.0212
   2939 C           -6.8303    17.7502    -2.5945 C       1      m1    -0.0399
   2940 H           -6.1577    17.6168    -3.6186 H       1      m1     0.0180
   2941 H           -4.5998    17.9613    -1.4560 H       7      m7     0.0207
   2942 C           -4.8959    18.8128    -2.0373 C       7      m7    -0.0188
   2943 C           -3.7809    19.4050    -4.1671 C       7      m7    -0.0041
   2944 C           -3.7975    18.5424    -2.9667 C       7      m7     0.0029
   2945 C           -2.6487    17.5800    -2.9016 C       7      m7    -0.0203
   2946 H           -2.1742    16.6367    -2.4625 H       7      m7     0.0192
   2947 C           -1.7337    17.6021    -3.9924 C       7      m7    -0.0006
   2948 C           -0.5413    16.3556    -3.8857 C       7      m7     0.0002
   2949 H           -0.3646    15.8333    -1.3410 H       7      m7     0.0154
   2950 C           -0.2326    16.0294    -2.4027 C       7      m7    -0.0234
   2951 C            0.8973    19.6370    -2.9370 C       5      m5    -0.0159
   2952 H            1.3865    18.6115    -2.9593 H       5      m5     0.0183
   2953 H            2.2119    15.3505    -0.5660 H       7      m7     0.0102
   2954 C            3.4094    15.7297    -2.0519 C       7      m7    -0.0114
   2955 H            3.6244   -19.5852    -1.9354 H       6      m6     0.0166
   2956 C            3.9884    15.5082    -3.5045 C       7      m7    -0.0260
   2957 C            4.7081    19.0237    -3.3180 C       6      m6    -0.0150
   2958 H            4.3612    18.1560    -2.6935 H       6      m6     0.0163
   2959 H            6.6044    15.1004    -0.5580 H       1      m1     0.0147
   2960 H            6.8600    16.1082    -4.1138 H       1      m1     0.0198
   2961 C            7.8609    15.7467    -3.7169 C       1      m1    -0.0144
   2962 C            9.1832    15.4962    -4.1776 C       1      m1    -0.0080
   2963 C           10.0927    19.5636    -3.0257 C      15     m15     0.0088
   2964 C            9.9874    19.2371    -1.4039 C      15     m15     0.0001
   2965 H            9.8573    16.2744    -4.7497 H       1      m1     0.0176
   2966 C           10.5555    18.8054    -4.0738 C      15     m15    -0.0200
   2967 C           11.1379    18.6310    -1.2676 C      15     m15    -0.0029
   2968 C           11.7958    18.0355    -3.6623 C      15     m15    -0.0191
   2969 C           11.9071    17.7738    -2.3800 C      15     m15     0.0010
   2970 H           13.3430    15.6794    -4.3418 H      15     m15     0.0192
   2971 C           13.0916    16.9904    -1.8236 C      15     m15     0.0014
   2972 C           13.5210    17.4219    -0.4421 C      15     m15    -0.0172
   2973 C           13.8937    15.8282    -2.1820 C      15     m15    -0.0194
   2974 H           14.1027    18.2555    -0.4289 H      15     m15     0.0218
   2975 H           15.1090    16.2140    -4.5559 H      15     m15     0.0195
   2976 H           15.1076   -19.6037    -3.6192 H       1      m1     0.0183
   2977 C           15.7515    19.7024    -3.0085 C       1      m1    -0.0176
   2978 C           16.3362    19.5377    -0.7780 C       1      m1    -0.0019
   2979 C           16.5479    18.5913    -3.5531 C       1      m1    -0.0170
   2980 H           16.4535    18.1693    -4.5083 H       1      m1     0.0169
   2981 C           17.2371    18.4184    -1.3013 C       1      m1    -0.0000
   2982 C           17.3685    17.6791    -2.5280 C       1      m1     0.0022
   2983 C           17.5860    17.7128    -0.2249 C       1      m1     0.0020
   2984 H           17.3054    15.9182    -2.9831 H       1      m1     0.0160
   2985 C           18.3349    16.5600    -2.7674 C       1      m1    -0.0351
   2986 C           18.2602    16.5059    -0.5600 C       1      m1    -0.0026
   2987 H          -18.1844   -16.3420     2.8771 H       1      m1     0.0147
   2988 C          -17.7809   -19.0406     4.3565 C       1      m1    -0.0369
   2989 C          -17.5941   -17.2281     2.4259 C       1      m1    -0.0205
   2990 C          -17.5027   -18.6091     2.9114 C       1      m1     0.0036
   2991 H          -17.1897   -16.2552     0.4451 H       1      m1     0.0136
   2992 C          -17.0153   -17.1221     1.0488 C       1      m1    -0.0151
   2993 C          -16.7642   -18.4158     0.5685 C       1      m1    -0.0130
   2994 C          -16.1520   -19.2685     2.8402 C       1      m1    -0.0013
   2995 C          -15.7334   -19.1636     1.3936 C       1      m1    -0.0011
   2996 H          -14.7495   -16.7722     3.5537 H       1      m1     0.0167
   2997 C          -13.9043   -16.9484     4.2244 C       1      m1    -0.0148
   2998 H          -13.1357   -18.3276     2.8038 H       1      m1     0.0181
   2999 C          -13.0077   -18.0322     3.8503 C       1      m1    -0.0149
   3000 H          -10.9202   -16.8621     0.9000 H      27     m27     0.0153
   3001 C          -10.1316   -15.5919     2.8024 C       8      m8    -0.0159
   3002 H          -10.2103   -15.4913     1.6406 H       8      m8     0.0124
   3003 H           -9.7176   -19.1339     0.7730 H      27     m27     0.0135
   3004 C           -9.0446   -16.1819     3.2941 C       8      m8    -0.0134
   3005 H           -8.0050   -16.5930     2.6348 H       8      m8     0.0127
   3006 H           -7.4714   -19.0719     0.9082 H      18     m18     0.0138
   3007 C           -6.4420   -19.1340     1.4933 C      18     m18    -0.0166
   3008 H           -6.0802   -15.8426     2.5246 H      18     m18     0.0148
   3009 C           -5.4491   -17.9971     1.3059 C      18     m18     0.0007
   3010 C           -5.4616   -16.6480     1.8865 C      18     m18    -0.0167
   3011 C           -4.4214   -15.8290     1.2281 C      18     m18    -0.0150
   3012 C           -4.1026   -18.4277     1.2644 C      18     m18    -0.0003
   3013 C           -3.0806   -16.3454     1.6109 C      18     m18    -0.0202
   3014 C           -2.8795   -17.7228     1.2389 C      18     m18     0.0024
   3015 H           -2.4058   -15.5544     1.7860 H      18     m18     0.0180
   3016 C           -1.7072   -19.4372     0.2259 C      18     m18    -0.0170
   3017 C           -1.5840   -18.2200     0.6143 C      18     m18    -0.0048
   3018 H           -0.3962   -17.6116     2.9367 H      18     m18     0.0194
   3019 H           -0.5528   -15.8873     2.4192 H      18     m18     0.0182
   3020 H           -0.1173   -15.4191     4.3268 H       8      m8     0.0142
   3021 C           -0.1934   -17.5403     0.7636 C      18     m18     0.0058
   3022 C           -0.0974   -16.9268     2.1097 C      18     m18    -0.0336
   3023 C            1.2845   -16.4639     2.6370 C      18     m18     0.0006
   3024 C            1.8321   -16.6363     3.9836 C      18     m18    -0.0154
   3025 C            2.2289   -16.1910     1.5719 C      18     m18    -0.0033
   3026 C            2.1311   -16.8851     0.4532 C      18     m18     0.0064
   3027 C            3.0298   -15.9190     4.4958 C      18     m18    -0.0188
   3028 C            3.6442   -15.9384     1.8648 C      18     m18     0.0022
   3029 C            3.8038   -19.4869     3.9385 C       5      m5     0.0017
   3030 C            3.8680   -15.5627     3.3041 C      18     m18     0.0071
   3031 C            4.9022   -18.8951     3.2792 C       5      m5     0.0008
   3032 C            5.3057   -15.7463     3.7476 C      18     m18    -0.0203
   3033 C            5.5025   -19.3569     1.8378 C       5      m5     0.0054
   3034 C            5.9668   -18.2997     4.1355 C       5      m5    -0.0005
   3035 C            6.5119   -18.5380     1.1829 C       5      m5    -0.0203
   3036 H            6.7297   -18.5327     0.1432 H       5      m5     0.0159
   3037 C            7.2109   -17.6834     2.1451 C       5      m5    -0.0120
   3038 C            7.2491   -17.9366     3.5831 C       5      m5    -0.0015
   3039 H            7.9432   -16.7222     2.2200 H       5      m5     0.0171
   3040 C            9.2328   -15.5450     4.1557 C       5      m5    -0.0219
   3041 C            9.3959   -16.8664     4.4186 C       5      m5     0.0001
   3042 H            9.6843   -19.7852     2.9472 H       5      m5     0.0162
   3043 C           10.4351   -18.7885     2.7202 C       5      m5    -0.0109
   3044 C           10.3831   -17.5451     3.6617 C       5      m5    -0.0003
   3045 C           11.4844   -19.1543     2.0972 C       5      m5    -0.0159
   3046 C           11.6818   -16.9211     3.7889 C       5      m5    -0.0005
   3047 H           11.4754    19.7445     1.5874 H       5      m5     0.0191
   3048 C           12.6427   -18.3049     2.2196 C       5      m5    -0.0182
   3049 C           12.7467   -16.9680     2.7534 C       5      m5     0.0007
   3050 H           13.5184   -18.9708     2.0421 H       5      m5     0.0169
   3051 H           13.9437   -17.3978     0.0624 H       1      m1     0.0156
   3052 C           14.0180   -16.1974     3.1547 C       5      m5    -0.0150
   3053 C           14.4650   -18.4821     0.1077 C       1      m1    -0.0119
   3054 H           14.6101   -17.6403     4.2637 H      12     m12     0.0206
   3055 H           15.1638   -16.6715     3.0560 H       5      m5     0.0141
   3056 C           15.8081   -18.3115     0.8045 C       1      m1    -0.0226
   3057 H           16.1114   -17.5717     1.5063 H       1      m1     0.0165
   3058 C           16.6814   -19.5626     0.4898 C       1      m1     0.0045
   3059 H           17.2033   -16.6680     3.9402 H      12     m12     0.0169
   3060 H           18.2872   -13.3402    -0.1687 H      12     m12     0.0134
   3061 H          -17.6062   -14.5469     1.4219 H      12     m12     0.0117
   3062 H          -17.9650   -14.9396     4.2820 H      12     m12     0.0158
   3063 H          -15.3326   -12.2059     2.5997 H       2      m2     0.0149
   3064 H          -15.1201   -12.2428     0.8879 H       2      m2     0.0092
   3065 C          -15.0640   -11.1880     2.6369 C       2      m2    -0.0236
   3066 H          -13.7717   -12.6499     2.9797 H       8      m8     0.0172
   3067 C          -13.2190   -13.4204     3.3591 C       8      m8    -0.0169
   3068 H          -12.3897   -15.5268     0.1903 H      27     m27     0.0168
   3069 C          -12.0242   -14.1500     2.8828 C       8      m8    -0.0156
   3070 H          -11.4205   -14.3014     1.8272 H       8      m8     0.0125
   3071 C          -11.2856   -15.0280     3.6609 C       8      m8     0.0045
   3072 H          -10.9062   -11.8749     3.1703 H       8      m8     0.0210
   3073 C          -10.0779   -11.3039     3.3524 C       8      m8    -0.0185
   3074 H           -9.5967   -13.0375     0.4136 H       8      m8     0.0129
   3075 C           -9.0828   -11.9397     2.5184 C       8      m8     0.0030
   3076 C           -8.9996   -12.9294     1.4074 C       8      m8    -0.0184
   3077 C           -7.9324   -11.5382     3.1816 C       8      m8    -0.0013
   3078 C           -7.6824   -13.4410     1.1257 C       8      m8    -0.0149
   3079 H           -7.6747   -14.2002     0.3318 H       8      m8     0.0127
   3080 C           -6.8440   -12.1459     2.7059 C       8      m8     0.0029
   3081 C           -6.5026   -12.9051     1.5754 C       8      m8    -0.0164
   3082 C           -5.6841   -11.1887     3.1714 C       8      m8    -0.0011
   3083 H           -5.6051   -13.2837     0.9407 H       8      m8     0.0150
   3084 H           -4.8039   -13.6114     3.8665 H       8      m8     0.0178
   3085 H           -4.4605   -14.7372     1.0664 H      18     m18     0.0155
   3086 C           -4.6815   -11.5195     0.1644 C       8      m8    -0.0194
   3087 C           -4.6491   -11.8695     2.6794 C       8      m8    -0.0011
   3088 C           -4.3513   -13.2349     2.9609 C       8      m8    -0.0225
   3089 C           -3.9294   -11.6390     1.5301 C       8      m8     0.0031
   3090 C           -3.0139   -13.8424     3.1297 C       8      m8    -0.0004
   3091 C           -2.5550   -12.0422     1.6055 C       8      m8    -0.0020
   3092 C           -2.4341   -14.6435     4.1437 C       8      m8    -0.0169
   3093 C           -1.9502   -12.9794     2.4312 C       8      m8    -0.0019
   3094 H           -1.8073   -15.4702     0.1218 H       3      m3     0.0171
   3095 C           -1.5376   -11.6339     0.5839 C       8      m8     0.0047
   3096 C           -0.9577   -14.5912     4.5029 C       8      m8    -0.0267
   3097 C           -0.5629   -12.7292     3.0781 C       8      m8     0.0025
   3098 C           -0.2122   -12.4268     0.5007 C       8      m8    -0.0200
   3099 C           -0.1055   -13.3094     4.3650 C       8      m8    -0.0213
   3100 C            0.2552   -12.7003     1.7812 C       8      m8    -0.0137
   3101 H            1.1898   -13.2511     1.8430 H       8      m8     0.0191
   3102 C            2.6074   -11.3468     1.6002 C       3      m3    -0.0186
   3103 C            3.0424   -11.8809     2.8807 C       3      m3     0.0023
   3104 H            3.0737   -11.8213     0.7924 H       3      m3     0.0159
   3105 C            4.4159   -12.4923     2.9376 C       3      m3    -0.0168
   3106 C            4.5162   -15.3301     0.8155 C      18     m18    -0.0002
   3107 H            5.2385   -12.8893     2.2021 H       3      m3     0.0160
   3108 C            4.6951   -12.4634     4.4266 C       3      m3    -0.0146
   3109 C            5.9068   -15.1651     1.3879 C      18     m18    -0.0178
   3110 H            5.4643   -12.9563     5.2290 H       3      m3     0.0180
   3111 C            6.1929   -15.1964     2.7605 C      18     m18    -0.0110
   3112 H            6.7751   -15.3772     0.5438 H      18     m18     0.0116
   3113 H            7.1077   -14.5516     3.1407 H      18     m18     0.0109
   3114 H            8.2840   -11.7853     3.7207 H      31     m31     0.0118
   3115 H            9.1758   -13.6340     2.3158 H       5      m5     0.0167
   3116 C            9.9751   -13.2530     3.1278 C       5      m5    -0.0342
   3117 C           10.1408   -14.8027     3.4615 C       5      m5     0.0034
   3118 H            9.6484   -12.4525     3.7232 H       5      m5     0.0173
   3119 H           10.8283   -12.2094     1.0913 H       5      m5     0.0194
   3120 C           11.1631   -12.7490     2.0118 C       5      m5    -0.0276
   3121 C           11.4746   -15.4755     3.5189 C       5      m5    -0.0015
   3122 C           11.8522   -14.0207     1.5164 C       5      m5     0.0012
   3123 C           12.1025   -14.3104     0.0940 C       5      m5    -0.0178
   3124 H           11.6256   -11.9006     2.7591 H       5      m5     0.0160
   3125 C           12.4082   -14.7382     2.9047 C       5      m5    -0.0002
   3126 C           13.8207   -14.8568     3.3370 C       5      m5    -0.0161
   3127 H           14.4275   -13.8680     3.4682 H       5      m5     0.0196
   3128 C           15.0155   -12.5088     0.1902 C      12     m12     0.0045
   3129 C           15.1987   -12.0900     1.4926 C      12     m12    -0.0005
   3130 C           15.3529   -11.6257     4.0352 C      12     m12    -0.0178
   3131 C           16.0106   -12.9219     2.2006 C      12     m12    -0.0009
   3132 C           16.0753   -12.7832     3.5189 C      12     m12    -0.0045
   3133 C           17.0449   -13.6344     4.3769 C      12     m12    -0.0045
   3134 C           17.0909   -13.8251     1.8608 C      12     m12     0.0021
   3135 C           17.1957   -13.3579     0.3917 C      12     m12    -0.0141
   3136 C           18.2607   -14.2466     3.6906 C      12     m12    -0.0177
   3137 C          -18.3527   -14.1052     2.2676 C      12     m12    -0.0191
   3138 H          -18.2669   -10.0254     4.7047 H      29     m29     0.0182
   3139 C          -15.0326   -11.0286     1.3582 C       2      m2    -0.0072
   3140 C          -14.8586    -9.9095     3.4130 C       2      m2     0.0049
   3141 C          -14.4414    -8.7766     2.4010 C       2      m2    -0.0001
   3142 C          -14.4587    -8.6517     0.9128 C       2      m2     0.0039
   3143 C          -14.4389    -9.9507     0.3996 C       2      m2    -0.0240
   3144 C          -14.3021    -7.3171     0.1898 C       2      m2    -0.0181
   3145 C          -13.7234    -7.6081     2.7162 C       2      m2    -0.0029
   3146 C          -13.5326    -7.6241     4.2198 C       2      m2     0.0051
   3147 H          -11.3019    -9.6984     3.7049 H       8      m8     0.0192
   3148 C          -10.2361    -9.9920     3.7756 C       8      m8    -0.0174
   3149 H           -9.3747    -7.6789     1.4014 H       1      m1     0.0171
   3150 C           -9.1567    -9.3489     4.4739 C       8      m8     0.0039
   3151 C           -8.3574    -7.2085     1.4495 C       1      m1    -0.0157
   3152 C           -7.9482   -10.2317     4.1462 C       8      m8    -0.0006
   3153 C           -7.3455    -7.0036     0.4115 C       1      m1     0.0048
   3154 C           -6.6912    -9.6433     4.4521 C       8      m8     0.0005
   3155 H           -5.9759    -7.4979     3.7151 H       3      m3     0.0195
   3156 H           -5.8746    -8.7955     1.4573 H       3      m3     0.0204
   3157 C           -5.3926   -10.0827     4.0182 C       8      m8    -0.0218
   3158 C           -5.0674    -7.9373     1.5745 C       3      m3    -0.0114
   3159 C           -5.1779    -7.1039     2.8443 C       3      m3    -0.0143
   3160 C           -4.5767    -7.9678     0.1742 C       3      m3     0.0019
   3161 H           -4.3330    -9.9240     4.3931 H       8      m8     0.0190
   3162 C           -3.3437    -6.9406     0.6257 C       3      m3     0.0025
   3163 H           -1.2585   -10.5218     4.0826 H       3      m3     0.0200
   3164 C           -0.3215   -10.0207     4.4839 C       3      m3    -0.0142
   3165 C            0.0986    -8.6783     0.2851 C       3      m3    -0.0190
   3166 C            0.4807    -8.3750     1.5298 C       3      m3     0.0025
   3167 C            0.7410    -6.9763     2.1074 C       3      m3     0.0033
   3168 C            0.9559   -10.1313     3.5845 C       3      m3     0.0005
   3169 C            1.2043    -9.5676     2.0700 C       3      m3     0.0010
   3170 C            1.3955    -6.9405     3.3860 C       3      m3    -0.0140
   3171 H            2.1732    -7.7378     3.8924 H       3      m3     0.0183
   3172 H            2.1575    -9.8900     0.0212 H       3      m3     0.0162
   3173 C            2.1558   -10.0318     1.1644 C       3      m3    -0.0159
   3174 C            2.4437   -10.7500     3.6358 C       3      m3    -0.0026
   3175 H            4.5417    -8.6488     3.1857 H       1      m1     0.0186
   3176 C            4.9691    -7.8358     3.8151 C       1      m1    -0.0178
   3177 H            6.2153    -6.8572     1.1051 H       1      m1     0.0177
   3178 C            6.0690    -6.9560     3.3343 C       1      m1     0.0027
   3179 C            6.7748    -6.8298     1.9552 C       1      m1    -0.0204
   3180 H            7.5685    -9.3265     4.1588 H      31     m31     0.0179
   3181 H            9.5346    -7.5704     0.5754 H       2      m2     0.0156
   3182 H           12.0537    -8.1997    -0.0826 H       2      m2     0.0165
   3183 H           13.4675   -10.2449     3.6532 H      12     m12     0.0144
   3184 H           13.4402    -9.1124     1.3062 H      12     m12     0.0129
   3185 C           13.9735   -10.0549     0.9955 C      12     m12    -0.0193
   3186 C           14.2815   -10.9373     3.4306 C      12     m12    -0.0203
   3187 C           14.5673    -6.7925     2.7849 C      29     m29    -0.0105
   3188 C           14.5676   -10.9670     1.9096 C      12     m12     0.0038
   3189 C           15.6752    -7.7639     2.2405 C      29     m29    -0.0219
   3190 H           15.3268    -8.7222     1.6950 H      29     m29     0.0195
   3191 C           16.7543    -7.2723     3.1461 C      29     m29     0.0032
   3192 C           16.4806    -6.6096     4.5509 C      29     m29    -0.0021
   3193 C           17.3439    -8.6064     3.4664 C      29     m29    -0.0145
   3194 H           17.1306    -9.3534     2.7489 H      29     m29     0.0212
   3195 C           17.9402    -9.2105     4.6704 C      29     m29    -0.0199
   3196 C          -17.7742    -3.4867     1.2091 C       1      m1    -0.0160
   3197 H          -18.3779    -4.4503     1.7460 H       1      m1     0.0159
   3198 C          -16.5033    -3.1106     0.5918 C       1      m1    -0.0120
   3199 H          -16.1981    -2.0582     3.7424 H      29     m29     0.0158
   3200 H          -15.8022    -3.9567     0.2206 H       1      m1     0.0142
   3201 H          -14.4033    -5.1801     0.9010 H       2      m2     0.0188
   3202 C          -13.6906    -5.9746     0.7516 C       2      m2    -0.0134
   3203 H          -13.1230    -2.6319     3.5970 H       2      m2     0.0176
   3204 C          -13.1011    -6.3777     2.0943 C       2      m2     0.0014
   3205 C          -12.9133    -2.6845     2.5299 C       2      m2    -0.0225
   3206 C          -12.5485    -5.2723     2.7574 C       2      m2    -0.0032
   3207 C          -12.5296    -4.0249     1.9488 C       2      m2    -0.0013
   3208 C          -12.5060    -3.9105     0.5159 C       2      m2     0.0010
   3209 C          -12.0407    -5.7806     3.9988 C       2      m2    -0.0146
   3210 H          -11.3118    -5.7276    -0.2806 H       2      m2     0.0153
   3211 H          -11.1419    -4.9704     4.3805 H       2      m2     0.0120
   3212 H           -9.1905    -6.9515     3.3409 H       1      m1     0.0172
   3213 H           -8.8757    -4.2630     4.0768 H       1      m1     0.0126
   3214 C           -8.3739    -6.5868     2.6190 C       1      m1    -0.0171
   3215 C           -7.8651    -4.2312     3.4173 C       1      m1    -0.0160
   3216 C           -7.4152    -5.4374     2.5607 C       1      m1     0.0037
   3217 C           -7.3826    -2.8341     3.3026 C       1      m1    -0.0182
   3218 C           -7.0282    -5.7010     0.0307 C       1      m1     0.0015
   3219 H           -7.7511    -2.2276     4.0988 H       1      m1     0.0154
   3220 C           -6.7301    -2.6174     2.1093 C       1      m1    -0.0003
   3221 C           -7.0471    -4.9269     1.3797 C       1      m1     0.0013
   3222 C           -6.7329    -3.5543     1.2083 C       1      m1     0.0010
   3223 H           -5.1274    -2.6131    -0.3510 H       1      m1     0.0166
   3224 H           -4.5207    -1.8686     4.2601 H       1      m1     0.0148
   3225 C           -4.5287    -5.0482     4.1017 C       3      m3    -0.0159
   3226 C           -4.5431    -5.8512     2.8745 C       3      m3     0.0059
   3227 C           -3.5249    -6.1235     1.6315 C       3      m3    -0.0000
   3228 C           -3.5475    -4.1184     4.2663 C       3      m3    -0.0148
   3229 C           -2.9267    -4.7812     1.8606 C       3      m3     0.0067
   3230 C           -2.7043    -4.0750     3.0905 C       3      m3    -0.0171
   3231 C           -2.2518    -4.3659     0.6183 C       3      m3    -0.0203
   3232 H           -2.1760    -3.3471     0.4347 H       3      m3     0.0198
   3233 H           -1.9806    -3.3402     3.3715 H       3      m3     0.0166
   3234 C            0.9015    -5.7354     1.2984 C       3      m3    -0.0004
   3235 H            1.5841    -3.2866     3.6765 H       3      m3     0.0177
   3236 C            1.3691    -5.5246     3.7848 C       3      m3    -0.0132
   3237 C            1.4602    -4.2366     3.2153 C       3      m3    -0.0210
   3238 C            1.4659    -4.4965     1.8289 C       3      m3     0.0068
   3239 C            2.8159    -3.7899     1.0749 C       3      m3    -0.0137
   3240 C            3.4306    -2.3527     0.9294 C       3      m3    -0.0018
   3241 H            3.7887    -4.2979     1.4315 H       3      m3     0.0175
   3242 C            7.0883    -6.5201     4.2968 C       1      m1    -0.0026
   3243 H            7.8991    -5.1510     1.0395 H       1      m1     0.0153
   3244 C            7.8581    -6.0415     1.6416 C       1      m1    -0.0163
   3245 C            8.3310    -5.8964     3.8639 C       1      m1     0.0021
   3246 C            8.7131    -5.3398     2.6435 C       1      m1    -0.0214
   3247 H            9.8108    -4.9508     2.5430 H       1      m1     0.0119
   3248 H           11.9590    -3.8739     0.0598 H       2      m2     0.0133
   3249 H           13.4878    -7.2671     2.4148 H      29     m29     0.0099
   3250 H           13.8801    -4.7534     3.7965 H      29     m29     0.0146
   3251 C           14.5954    -5.4981     3.5600 C      29     m29    -0.0236
   3252 H           14.8438    -3.1714     2.5811 H       1      m1     0.0168
   3253 C           15.7705    -2.8087     2.2536 C       1      m1    -0.0164
   3254 C           16.9132    -3.5088     2.1631 C       1      m1    -0.0173
   3255 H           16.7419    -4.5889     2.2803 H       1      m1     0.0189
   3256 C           17.9132    -2.8049     1.5200 C       1      m1     0.0043
   3257 C          -17.6053    -0.8895     0.7270 C       1      m1     0.0028
   3258 H          -17.2693    -0.3185     4.3953 H      29     m29     0.0150
   3259 C          -17.5361     0.6147     0.5974 C       1      m1    -0.0200
   3260 C          -16.4887    -1.8420     0.4204 C       1      m1    -0.0219
   3261 H          -16.7882     1.4852     0.1927 H       1      m1     0.0168
   3262 H          -15.6941    -1.3427     0.0874 H       1      m1     0.0207
   3263 H          -15.4578    -0.1878     2.1502 H       1      m1     0.0159
   3264 H          -14.5767    -0.3591     4.9505 H       1      m1     0.0127
   3265 C          -14.5940     0.5173     2.8128 C       1      m1    -0.0157
   3266 C          -14.1502     0.3952     4.1118 C       1      m1    -0.0117
   3267 C          -13.9672     1.8889     2.3873 C       1      m1     0.0064
   3268 C          -13.0525    -1.5581     0.2255 C       2      m2    -0.0030
   3269 C          -12.6314    -1.4791     1.5932 C       2      m2     0.0031
   3270 C          -11.2783    -0.8473     1.4873 C       2      m2    -0.0127
   3271 H          -10.9110    -0.7844     2.6307 H       2      m2     0.0159
   3272 C          -10.7606     0.0111     0.5273 C       2      m2    -0.0125
   3273 H           -9.8831     0.7137     0.7760 H       2      m2     0.0149
   3274 H           -7.3122    -1.1643     0.5264 H       1      m1     0.0202
   3275 C           -7.2372     1.0733     0.0886 C       1      m1    -0.0165
   3276 C           -7.0063    -0.1562     0.7057 C       1      m1    -0.0206
   3277 C           -6.7091     2.1882     0.8213 C       1      m1    -0.0144
   3278 C           -6.0570    -0.1418     1.8069 C       1      m1     0.0035
   3279 C           -5.7272    -1.3721     2.3074 C       1      m1    -0.0041
   3280 C           -5.3887     2.0717     1.4103 C       1      m1    -0.0143
   3281 C           -4.8674     0.7905     1.3438 C       1      m1    -0.0151
   3282 H           -4.6210     0.8019     0.3236 H       1      m1     0.0203
   3283 C           -4.5191    -1.6863     3.0799 C       1      m1    -0.0147
   3284 C           -3.5798     0.5431     2.1308 C       1      m1     0.0007
   3285 C           -3.2798    -0.7634     2.7195 C       1      m1    -0.0019
   3286 C           -2.8466    -0.4049     4.1186 C       1      m1    -0.0186
   3287 C           -2.5251     0.8553     4.2628 C       1      m1     0.0053
   3288 C           -2.4290     1.5623     1.8206 C       1      m1    -0.0017
   3289 C           -1.8865     1.6749     3.2240 C       1      m1    -0.0268
   3290 H           -1.5960    -1.5369     1.1016 H       3      m3     0.0150
   3291 C           -1.9478     1.6592     0.5773 C       1      m1    -0.0167
   3292 H           -0.9561     2.0885     0.8090 H       1      m1     0.0204
   3293 C           -0.4915    -1.0493     1.3684 C       3      m3    -0.0133
   3294 H           -0.2799    -2.0307     3.4006 H       3      m3     0.0118
   3295 C            0.3233    -1.4386     2.4459 C       3      m3    -0.0103
   3296 C            1.4182    -1.1353     0.0946 C       3      m3     0.0002
   3297 C            1.7530    -1.1771     2.6476 C       3      m3    -0.0202
   3298 C            2.1874    -1.3929     1.2634 C       3      m3     0.0014
   3299 H            1.9243    -1.5608     3.7306 H       3      m3     0.0126
   3300 H            3.2435     1.4308     3.8970 H       1      m1     0.0149
   3301 C            3.8823     2.0104     3.2519 C       1      m1    -0.0231
   3302 C            4.4566     1.4655     2.0280 C       1      m1    -0.0147
   3303 H            4.2430     0.2957     2.2317 H       1      m1     0.0161
   3304 C            4.4730     2.1163     0.7574 C       1      m1     0.0064
   3305 H            5.4536     1.7607     4.7906 H       1      m1     0.0191
   3306 H            7.5254     0.7936     3.5049 H       1      m1     0.0193
   3307 C            7.4570     1.3887     4.2183 C       1      m1    -0.0245
   3308 H            9.8768     0.0556     4.0799 H       1      m1     0.0135
   3309 H            9.4316    -1.4462     0.7356 H       3      m3     0.0138
   3310 H           10.0260     0.6493     0.3505 H       3      m3     0.0144
   3311 H           12.5629    -1.2321     0.6365 H       2      m2     0.0154
   3312 H           14.1755     1.4774     1.5684 H       1      m1     0.0139
   3313 H           13.8628    -0.1574     2.9775 H       1      m1     0.0112
   3314 C           14.9233     0.7698     1.7164 C       1      m1    -0.0137
   3315 C           14.8106    -0.4038     2.3432 C       1      m1    -0.0188
   3316 H           15.7095     1.7707    -0.1908 H       1      m1     0.0172
   3317 C           15.9116     1.1717     0.6617 C       1      m1    -0.0203
   3318 C           15.8342    -1.3915     2.0367 C       1      m1     0.0068
   3319 H           16.6881     0.0121     4.0994 H      29     m29     0.0187
   3320 C           17.0490    -0.7646     1.6539 C       1      m1    -0.0017
   3321 C           17.0906     0.4606     1.0359 C       1      m1     0.0040
   3322 C           18.0164    -1.4596     1.1644 C       1      m1    -0.0004
   3323 C           18.3796     0.9960     1.5904 C       1      m1    -0.0026
   3324 C          -18.3334     4.8489     1.7371 C       1      m1     0.0013
   3325 C          -18.1548     2.5054     2.0751 C       1      m1    -0.0025
   3326 C          -17.4979     2.9705     3.2486 C       1      m1    -0.0188
   3327 C          -17.5423     5.4259     2.9176 C       1      m1    -0.0021
   3328 C          -17.0645     4.2767     3.6267 C       1      m1     0.0016
   3329 H          -17.2853     2.2742     4.0423 H       1      m1     0.0190
   3330 H          -15.4239     2.6115     0.8097 H       1      m1     0.0212
   3331 H          -14.6872     5.0854     3.2704 H       1      m1     0.0224
   3332 C          -14.8535     5.7478     0.5132 C       1      m1    -0.0125
   3333 C          -14.5334     6.2016     3.2177 C       1      m1    -0.0216
   3334 C          -14.4646     2.7007     1.2349 C       1      m1    -0.0221
   3335 H          -13.9716     5.6461     1.2907 H       1      m1     0.0178
   3336 C          -13.4397     3.1707     0.3957 C       1      m1     0.0019
   3337 C          -13.1298     6.7155     3.2292 C       1      m1     0.0039
   3338 C          -12.7585     2.4064     2.9475 C       1      m1    -0.0020
   3339 C          -12.5093     2.2819     4.2498 C       1      m1     0.0048
   3340 H          -12.0605     5.4100     1.1187 H       1      m1     0.0223
   3341 C          -11.9505     3.3130     0.6120 C       1      m1    -0.0127
   3342 C          -11.7487     3.0700     2.2652 C       1      m1     0.0008
   3343 C          -11.5054     4.7633     0.7507 C       1      m1    -0.0238
   3344 C          -10.5070     6.2088     3.0751 C       1      m1    -0.0053
   3345 C          -10.3652     5.9378     4.5463 C       1      m1    -0.0017
   3346 C          -10.4276     3.2658     2.7677 C       1      m1     0.0060
   3347 C          -10.1872     2.8142     4.0090 C       1      m1    -0.0188
   3348 C          -10.0593     4.8013     0.7701 C       1      m1     0.0037
   3349 C           -9.4168     6.3565     2.1489 C       1      m1    -0.0009
   3350 C           -9.3041     6.2120     0.7142 C       1      m1    -0.0097
   3351 C           -9.3625     3.7255     1.7346 C       1      m1    -0.0306
   3352 H           -9.1432     2.9121     4.1789 H       1      m1     0.0158
   3353 H           -9.3296     2.9662     0.9597 H       1      m1     0.0168
   3354 H           -8.1709     3.5544     2.0109 H       1      m1     0.0166
   3355 H           -8.9527     6.4449     3.7156 H       1      m1     0.0206
   3356 C           -8.1896     6.3731     2.9687 C       1      m1    -0.0195
   3357 C           -8.0310     5.7028     0.2587 C       1      m1     0.0035
   3358 H           -7.2738     3.1101     0.7397 H       1      m1     0.0175
   3359 C           -7.0582     5.7508     2.3636 C       1      m1     0.0052
   3360 C           -6.9886     5.2266     1.1422 C       1      m1    -0.0068
   3361 C           -5.9733     5.3851     3.3964 C       1      m1    -0.0187
   3362 H           -6.4669     5.6242     4.3457 H       1      m1     0.0165
   3363 C           -5.3339     4.9617     0.7936 C       1      m1    -0.0031
   3364 C           -4.8218     4.6869     3.0841 C       1      m1    -0.0143
   3365 H           -4.7744     2.8030     1.9328 H       1      m1     0.0225
   3366 H           -3.9058     4.1791     3.8004 H       1      m1     0.0146
   3367 C           -4.3496     4.6665     1.6683 C       1      m1     0.0016
   3368 C           -3.1943     3.9820     1.1895 C       1      m1    -0.0210
   3369 H           -2.3630     3.4531     1.7623 H       1      m1     0.0203
   3370 H           -1.2419     2.3298     3.5488 H       1      m1     0.0185
   3371 C            1.8273     6.2545     4.1830 C       1      m1    -0.0032
   3372 C            2.8758     5.3213     3.6029 C       1      m1     0.0053
   3373 C            3.3477     4.2402     4.3651 C       1      m1    -0.0283
   3374 C            4.0582     3.5264     3.2944 C       1      m1     0.0046
   3375 C            3.9193     6.2314     2.8943 C       1      m1    -0.0253
   3376 C            4.6111     5.6376     1.8654 C       1      m1     0.0002
   3377 C            4.5796     4.2315     2.1370 C       1      m1    -0.0030
   3378 C            5.3662     6.2535     0.5028 C       1      m1    -0.0157
   3379 C            5.0007     3.4393     1.0745 C       1      m1    -0.0027
   3380 H            6.4851     7.0792     4.1149 H       1      m1     0.0197
   3381 H            7.3700     5.0218     2.5380 H       1      m1     0.0200
   3382 C            7.8754     4.9161     3.4831 C       1      m1    -0.0200
   3383 C            8.3825     5.8255     4.5052 C       1      m1     0.0085
   3384 H            8.6706     5.5076     0.8507 H       1      m1     0.0161
   3385 C            8.7198     3.8036     3.5555 C       1      m1    -0.0114
   3386 H            8.5308     3.1655     2.7569 H       1      m1     0.0163
   3387 C            9.9731     3.5623     4.3137 C       1      m1    -0.0197
   3388 H           10.5499     2.8196     3.7399 H       1      m1     0.0140
   3389 H           11.7789     5.9325     3.7958 H       1      m1     0.0176
   3390 H           12.6533     4.2427     3.1560 H       1      m1     0.0120
   3391 C           13.6622     4.6199     3.5516 C       1      m1    -0.0186
   3392 C           13.6225     5.9342     4.2599 C       1      m1     0.0041
   3393 C           14.9536     4.0246     3.4010 C       1      m1    -0.0144
   3394 H           15.4686     3.8114     2.2521 H       1      m1     0.0166
   3395 C           15.7567     4.4130     4.5666 C       1      m1    -0.0155
   3396 H           16.2372     3.4037     4.5158 H       1      m1     0.0171
   3397 C           16.8939     6.0306     0.3709 C       1      m1    -0.0194
   3398 C           17.7352     6.0992     1.4457 C       1      m1     0.0074
   3399 C           18.2374     3.5291     1.1832 C       1      m1     0.0009
   3400 C          -17.7622     8.0441     2.5387 C       1      m1    -0.0145
   3401 H          -17.3706     9.1982     2.6816 H       1      m1     0.0115
   3402 C          -17.2296     6.8413     3.1450 C       1      m1     0.0007
   3403 H          -16.5367    11.2770     2.6297 H       1      m1     0.0126
   3404 H          -16.0078     9.3885     3.8684 H       1      m1     0.0156
   3405 C          -16.3771    11.1450     0.5404 C       1      m1    -0.0240
   3406 C          -15.3917     8.5347     4.1480 C       1      m1    -0.0144
   3407 C          -15.6416     7.1858     3.4721 C       1      m1     0.0014
   3408 H          -14.5448     7.8291     0.4404 H       1      m1     0.0196
   3409 C          -13.0278    10.7705     0.0949 C       1      m1    -0.0007
   3410 H          -12.4451     9.3833     1.8181 H       1      m1     0.0195
   3411 C          -11.9942    10.3221     2.1134 C       1      m1    -0.0188
   3412 C          -11.8068     6.9718     2.7212 C       1      m1    -0.0237
   3413 H          -11.4684     7.1968     1.7817 H       1      m1     0.0184
   3414 C          -10.6972    10.3483     2.5204 C       1      m1    -0.0140
   3415 H           -9.9348     8.3022     3.3889 H       1      m1     0.0204
   3416 C           -9.6039     9.3895     3.2260 C       1      m1    -0.0237
   3417 H           -8.8738     8.9827     0.3859 H       1      m1     0.0175
   3418 C           -8.3255     8.9630     2.6904 C       1      m1     0.0076
   3419 H           -8.1253     7.6635     4.4120 H       1      m1     0.0177
   3420 C           -8.2756     9.3099     1.2221 C       1      m1    -0.0245
   3421 C           -7.7564     7.8415     3.4594 C       1      m1    -0.0193
   3422 C           -6.9845     9.3168     0.8300 C       1      m1     0.0014
   3423 C           -6.0204     8.2211     3.5654 C       1      m1    -0.0120
   3424 C           -5.8196     9.3926     0.5288 C       1      m1    -0.0213
   3425 H           -5.3451     7.6468     2.7616 H       1      m1     0.0210
   3426 C           -5.2657    11.0996     2.4649 C       1      m1    -0.0137
   3427 C           -5.3539    10.8786     0.9014 C       1      m1    -0.0267
   3428 C           -4.8448     8.9484     4.0209 C       1      m1    -0.0191
   3429 C           -4.6798     9.7326     2.7349 C       1      m1     0.0042
   3430 C           -3.7747     8.8548     1.5368 C       1      m1    -0.0025
   3431 C           -2.3944     9.3387     1.2193 C       1      m1    -0.0422
   3432 H           -2.2087    10.1253     1.9782 H       1      m1     0.0224
   3433 H           -1.7400     9.1687     0.5968 H       1      m1     0.0282
   3434 H           -1.9012    11.0086     4.4928 H       1      m1     0.0200
   3435 C           -1.0499     8.9462     3.6651 C       1      m1     0.0086
   3436 H           -0.7335     9.9528     1.5224 H       1      m1     0.0170
   3437 C           -0.4845     9.7490     2.5795 C       1      m1    -0.0210
   3438 C           -0.3351     7.7211     4.0925 C       1      m1    -0.0030
   3439 C            0.7187     9.2597     1.9792 C       1      m1    -0.0177
   3440 H            1.3653     9.9704     1.6109 H       1      m1     0.0157
   3441 C            1.0339     7.3714     3.5797 C       1      m1    -0.0015
   3442 C            1.3447     7.9699     2.3077 C       1      m1    -0.0152
   3443 H            1.8576     7.2838     1.4574 H       1      m1     0.0167
   3444 H            3.2533    10.2060     2.7882 H       1      m1     0.0172
   3445 H            3.9671     7.2385     2.7437 H       1      m1     0.0216
   3446 H            3.6516     8.6451     0.7483 H       1      m1     0.0190
   3447 C            4.1986    10.5678     2.1250 C       1      m1    -0.0150
   3448 C            4.6312     8.6269     0.5811 C       1      m1    -0.0265
   3449 C            5.0850     9.8022     1.1708 C       1      m1     0.0042
   3450 C            5.7072     7.6792     0.4209 C       1      m1     0.0072
   3451 C            6.3647    10.4057     0.9243 C       1      m1     0.0010
   3452 C            7.3838     9.6257     0.3846 C       1      m1    -0.0013
   3453 C            7.6160     7.0925     4.3753 C       1      m1    -0.0198
   3454 C            8.7920    10.3436     0.3541 C       1      m1     0.0004
   3455 H           11.8125     8.6028     3.7028 H       1      m1     0.0230
   3456 C           12.4771     6.6064     4.3164 C       1      m1    -0.0131
   3457 C           12.4693     8.0159     4.1468 C       1      m1    -0.0185
   3458 C           12.9232    10.6734     3.8457 C       1      m1     0.0003
   3459 C           14.3761    11.0675     3.6273 C       1      m1     0.0035
   3460 C           14.4179    10.9136     2.2513 C       1      m1     0.0012
   3461 C           15.8186    10.7987     0.2761 C       1      m1    -0.0289
   3462 C           15.7888    10.9788     1.8392 C       1      m1     0.0042
   3463 H           16.6569     9.9933    -0.0809 H       1      m1     0.0128
   3464 H           18.1668     8.4643     0.8866 H       1      m1     0.0132
   3465 C           18.1909     7.5774     1.6625 C       1      m1    -0.0123
   3466 H          -17.2341    10.9315     1.1031 H       1      m1     0.0146
   3467 H          -16.9363    15.5561     2.1083 H       1      m1     0.0246
   3468 C          -15.6694    11.6229     3.5198 C       1      m1    -0.0151
   3469 C          -15.0150    11.4433     0.8417 C       1      m1     0.0033
   3470 C          -14.5787    12.4388     3.0250 C       1      m1    -0.0010
   3471 C          -14.2296    13.6282     3.7334 C       1      m1     0.0035
   3472 C          -14.0713    11.8421     1.8022 C       1      m1    -0.0037
   3473 C          -13.2948    14.5090     2.9968 C       1      m1    -0.0199
   3474 H          -12.8626    13.7788     2.3771 H       1      m1     0.0208
   3475 C          -12.9125    11.3246     1.4068 C       1      m1    -0.0061
   3476 H          -10.4430    13.3311     1.2083 H       1      m1     0.0160
   3477 C          -10.1032    15.1160     2.1864 C       1      m1    -0.0183
   3478 H          -10.0212    11.2853     2.3593 H       1      m1     0.0159
   3479 C           -9.6766    13.8079     1.7182 C       1      m1    -0.0138
   3480 C           -8.5177    13.3400     2.4144 C       1      m1    -0.0201
   3481 H           -8.1599    12.3266     2.6544 H       1      m1     0.0145
   3482 C           -8.0804    14.2109     3.5849 C       1      m1     0.0042
   3483 H           -6.0144    11.8548     2.9708 H       1      m1     0.0185
   3484 H           -6.3261    11.4571     0.6501 H       1      m1     0.0177
   3485 H           -4.2724    10.7558     0.3741 H       1      m1     0.0194
   3486 C           -4.2772    12.8356     4.1865 C       1      m1     0.0006
   3487 C           -4.0604    12.1650     2.8804 C       1      m1    -0.0018
   3488 H           -2.7729    12.2148     1.3767 H       1      m1     0.0160
   3489 C           -2.9581    12.7636     2.2900 C       1      m1    -0.0216
   3490 C           -2.0457    13.9128     4.2861 C       1      m1    -0.0037
   3491 C           -1.7583    13.6319     2.8735 C       1      m1     0.0021
   3492 C           -1.3855    15.1449     4.5411 C       1      m1     0.0008
   3493 C           -0.8280    14.3284     1.9321 C       1      m1    -0.0186
   3494 H           -0.8192    13.9613     0.8572 H       1      m1     0.0127
   3495 C            0.1958    15.0968     2.3863 C       1      m1    -0.0168
   3496 H            0.8863    11.0261     4.5328 H       1      m1     0.0200
   3497 H            1.0518    15.0400     1.6544 H       1      m1     0.0105
   3498 C            1.7108    11.7057     4.5216 C       1      m1    -0.0205
   3499 C            1.7214    13.0470     4.0913 C       1      m1    -0.0175
   3500 H            1.4009    12.8037     2.9585 H       1      m1     0.0137
   3501 H            3.3296    12.6988     2.8332 H       1      m1     0.0149
   3502 C            4.1321    11.9021     2.3765 C       1      m1    -0.0144
   3503 C            5.5889    12.3779     2.0767 C       1      m1    -0.0184
   3504 H            5.7416    13.3768     2.3467 H       1      m1     0.0149
   3505 C            6.6487    11.8543     1.0206 C       1      m1     0.0019
   3506 H            6.7988    14.5620     2.9876 H      12     m12     0.0152
   3507 H            7.3770    11.2675     3.8031 H       1      m1     0.0199
   3508 C            8.1322    12.1874     1.3201 C       1      m1    -0.0236
   3509 H            8.4259    13.1623     1.3943 H       1      m1     0.0166
   3510 H            8.8208    14.4033     2.4822 H      12     m12     0.0130
   3511 C            9.2424    15.2999     3.0861 C      12     m12    -0.0157
   3512 C            9.3400    11.3633     1.1775 C       1      m1     0.0016
   3513 C           10.7053    11.6158     0.7974 C       1      m1    -0.0170
   3514 H           10.7781    11.4608     3.6598 H       1      m1     0.0171
   3515 H           10.8977    12.5685     0.4322 H       1      m1     0.0168
   3516 C           11.8482    11.4623     3.2618 C       1      m1    -0.0199
   3517 H           11.8939    13.7223     0.9753 H       1      m1     0.0151
   3518 C           11.9647    11.1002     1.7295 C       1      m1     0.0024
   3519 H           12.5490    14.7243     3.7001 H       1      m1     0.0197
   3520 C           12.8015    13.8218     1.4431 C       1      m1    -0.0102
   3521 C           12.8663    14.6564     2.6881 C       1      m1    -0.0221
   3522 C           13.1481    11.2504     1.3029 C       1      m1    -0.0012
   3523 C           13.8703    13.7783     0.4446 C       1      m1    -0.0157
   3524 C           15.2251    14.2754     0.7137 C       1      m1     0.0031
   3525 C           15.2041    14.7456     2.1547 C       1      m1     0.0003
   3526 C           16.4442    15.2480     2.6894 C       1      m1    -0.0021
   3527 C           16.9708    11.1970     2.7297 C       1      m1    -0.0181
   3528 C           16.7492    11.4919     4.0829 C       1      m1    -0.0124
   3529 C           17.4132    15.4224     0.4074 C       1      m1     0.0006
   3530 H           17.9661    11.0995     2.2106 H       1      m1     0.0123
   3531 C           17.7026    15.4762     1.8710 C       1      m1    -0.0027
   3532 H           17.8220    11.0392    -0.2211 H       1      m1     0.0121
   3533 C          -17.7596    15.8010     2.6848 C       1      m1    -0.0206
   3534 C          -17.8168    16.3537     3.9694 C       1      m1     0.0019
   3535 C          -16.5624    18.4073     4.0148 C       1      m1     0.0036
   3536 C          -15.5813    19.3979     3.4734 C       1      m1    -0.0082
   3537 C          -15.4224    19.4308     0.8401 C       1      m1    -0.0155
   3538 C          -14.7266    18.4868     2.7157 C       1      m1     0.0017
   3539 C          -14.7234    18.2008     1.3076 C       1      m1    -0.0023
   3540 C          -13.7430    16.4772     4.2528 C       1      m1     0.0022
   3541 C          -13.9629    17.9806     3.9280 C       1      m1    -0.0349
   3542 C          -13.6804    17.7092     0.3269 C       1      m1    -0.0028
   3543 C          -13.4679    15.9253     2.9417 C       1      m1    -0.0144
   3544 H          -13.0819    16.6405     2.0823 H       1      m1     0.0193
   3545 H          -13.0766    18.2315     3.4217 H       1      m1     0.0194
   3546 C          -12.2053    17.5168     0.5067 C       1      m1    -0.0265
   3547 C          -11.6213    19.6514     4.0047 C       1      m1    -0.0217
   3548 H          -11.8646    19.1545     2.9719 H       1      m1     0.0142
   3549 H          -11.3156    17.0035     3.4601 H       1      m1     0.0170
   3550 H          -11.4404    18.3443     0.4507 H       1      m1     0.0181
   3551 H          -11.0907    15.4916     2.2846 H       1      m1     0.0184
   3552 C          -10.2237    17.1273     3.3550 C       1      m1    -0.0236
   3553 C           -9.7647    18.0494     4.4029 C       1      m1    -0.0004
   3554 C           -9.5669    15.7606     3.2927 C       1      m1     0.0016
   3555 C           -8.0469    15.5682     3.8403 C       1      m1    -0.0038
   3556 H           -7.0587    19.1335     2.4973 H      18     m18     0.0203
   3557 C           -6.2814    19.6390     2.2301 C      18     m18    -0.0217
   3558 H           -5.3693    17.2387     2.6710 H      18     m18     0.0209
   3559 C           -4.8929    19.0547     2.2768 C      18     m18     0.0030
   3560 C           -4.5094    17.6207     2.1927 C      18     m18    -0.0167
   3561 C           -4.1208   -19.8851     1.3338 C      18     m18    -0.0016
   3562 C           -3.2743    17.1892     1.6258 C      18     m18    -0.0119
   3563 H           -2.9139    16.1940     1.5439 H      18     m18     0.0189
   3564 C           -2.8004    19.4881     0.6036 C      18     m18     0.0036
   3565 C           -2.5899    18.1407     0.6875 C      18     m18    -0.0157
   3566 H           -1.3528    18.3162     0.5961 H      18     m18     0.0147
   3567 H           -0.6490   -19.8500     0.1932 H      18     m18     0.0149
   3568 C           -0.0415    15.4693     3.8395 C       1      m1    -0.0146
   3569 C            0.0962    16.8746     4.5374 C       1      m1    -0.0017
   3570 H            1.7125    17.3881     4.2367 H       1      m1     0.0201
   3571 H            1.9126    19.2859     3.1343 H       5      m5     0.0178
   3572 C            3.0006    19.2950     2.9764 C       5      m5    -0.0215
   3573 H            3.2116    18.0506     1.7517 H       5      m5     0.0139
   3574 C            3.4186    19.0581     1.6165 C       5      m5    -0.0161
   3575 H            5.3578    18.6822     4.0264 H      12     m12     0.0211
   3576 C            4.6632    19.7849     1.0546 C       5      m5    -0.0189
   3577 H            5.0640   -19.7280     0.0838 H       5      m5     0.0167
   3578 C            5.4540    17.4641     4.1686 C      12     m12    -0.0218
   3579 H            4.8585    16.4831     2.6361 H      12     m12     0.0111
   3580 C            5.8547    16.3487     3.3539 C      12     m12    -0.0114
   3581 C            6.9897    15.5237     3.3515 C      12     m12    -0.0220
   3582 C            8.1884    16.2930     3.6211 C      12     m12     0.0052
   3583 H            8.5145    19.8557     1.6738 H      15     m15     0.0194
   3584 C            9.1584    19.3443     0.9670 C      15     m15    -0.0192
   3585 C           10.1411    18.5038     1.0382 C      15     m15    -0.0185
   3586 H           10.1780    18.2787     2.0386 H      15     m15     0.0201
   3587 C           10.4227    15.9767     3.0959 C      12     m12    -0.0208
   3588 C           10.6217    17.0279     4.2661 C      12     m12    -0.0030
   3589 H           11.3724    15.8677     2.6779 H      12     m12     0.0204
   3590 C           11.2339    18.4452     0.1710 C      15     m15     0.0026
   3591 H           12.6706    17.9037     4.8139 H      12     m12     0.0162
   3592 C           12.5504    17.9916     0.4859 C      15     m15    -0.0200
   3593 H           13.0607    18.2597     1.4372 H      15     m15     0.0149
   3594 H           14.0883    17.4424     3.2259 H       1      m1     0.0162
   3595 H           13.5809    19.4773     4.5134 H      12     m12     0.0167
   3596 C           14.0607    15.3769     2.7158 C       1      m1     0.0035
   3597 C           14.1884    16.5042     3.8152 C       1      m1    -0.0226
   3598 C           16.6153    16.2060     3.8065 C       1      m1    -0.0011
   3599 H           16.9603    18.9095     4.9985 H       1      m1     0.0198
   3600 H           17.7151   -19.6756     2.2928 H       1      m1     0.0200
   3601 C           17.2444    19.4450     1.4684 C       1      m1    -0.0171
   3602 H           17.6142    17.6158     1.7749 H       1      m1     0.0258
   3603 C           17.7582    18.2144     1.0266 C       1      m1    -0.0175
   3604 C           17.8898    17.0219     4.1740 C       1      m1    -0.0009
   3605 C          -17.9889   -16.9565     6.2495 C      12     m12    -0.0244
   3606 H          -17.1735   -16.4220     5.7894 H      12     m12     0.0195
   3607 C          -17.6964   -17.2111     7.6997 C      12     m12     0.0086
   3608 H          -16.9586   -19.0308     5.0648 H       1      m1     0.0217
   3609 C          -16.1899   -16.9245     7.8533 C      12     m12    -0.0245
   3610 H          -15.5869   -17.8852     8.1437 H      12     m12     0.0161
   3611 H          -14.2255   -16.4803     6.3196 H       1      m1     0.0178
   3612 C          -13.5992   -17.0638     5.6666 C       1      m1    -0.0165
   3613 H          -13.1621   -16.1278     8.4624 H       1      m1     0.0155
   3614 C          -12.5737   -16.8296     7.7303 C       1      m1    -0.0215
   3615 C          -12.3470   -17.0800     6.3359 C       1      m1     0.0079
   3616 C          -12.0905   -19.0035     4.6862 C       1      m1     0.0036
   3617 C          -11.6987   -18.2702     5.9220 C       1      m1    -0.0001
   3618 C          -11.2433   -17.1573     8.1148 C       1      m1    -0.0095
   3619 C          -10.9582   -18.9517     6.7105 C       1      m1    -0.0043
   3620 C          -10.9123   -18.5053     8.0739 C       1      m1    -0.0007
   3621 H          -10.7823   -16.2479     8.8933 H       1      m1     0.0121
   3622 C          -10.1430    19.7923     6.1031 C       1      m1     0.0041
   3623 C           -9.5513   -18.5688     8.9953 C       1      m1    -0.0169
   3624 C           -9.0155   -15.9097     4.8511 C       8      m8     0.0050
   3625 H           -8.6728   -19.0201     8.5830 H       1      m1     0.0147
   3626 C           -7.6615   -15.8757     5.2849 C       8      m8    -0.0204
   3627 H           -7.1320   -16.6931     4.7206 H       8      m8     0.0172
   3628 H           -3.4248    19.9092     6.9899 H       1      m1     0.0150
   3629 C           -1.2717   -16.1583     9.1352 C       1      m1     0.0054
   3630 C           -1.3932   -19.5753     8.0435 C       1      m1     0.0012
   3631 C           -0.7844   -17.4638     8.4456 C       1      m1    -0.0006
   3632 C           -0.0308   -19.8621     7.6140 C       1      m1     0.0038
   3633 C            0.6013   -17.7280     7.8873 C       1      m1    -0.0201
   3634 H            0.8357   -17.0105     4.6363 H      18     m18     0.0101
   3635 H            1.6700   -17.3826     8.2547 H       1      m1     0.0130
   3636 C            1.1871   -19.1792     7.9366 C       1      m1    -0.0033
   3637 H            2.0299   -18.1847     4.8976 H       5      m5     0.0184
   3638 H            2.5825   -19.5407     6.2087 H       1      m1     0.0206
   3639 C            2.4826   -19.9010     7.2757 C       1      m1    -0.0314
   3640 H            3.1585   -15.4552     5.3808 H      18     m18     0.0174
   3641 C            3.0214   -18.5380     4.6823 C       5      m5    -0.0185
   3642 H            3.5887   -18.4895     6.7693 H       5      m5     0.0109
   3643 H            3.2483   -19.3284     8.1776 H       1      m1     0.0122
   3644 C            4.0613   -17.9914     5.6718 C       5      m5    -0.0161
   3645 H            5.7264   -15.9573     4.5525 H      18     m18     0.0230
   3646 C            5.5616   -17.9103     5.4817 C       5      m5    -0.0035
   3647 H            6.4557   -18.4155     7.2657 H       5      m5     0.0171
   3648 C            6.6904   -17.8984     6.3678 C       5      m5    -0.0212
   3649 C            8.0215   -17.5138     6.1106 C       5      m5    -0.0157
   3650 C            8.1061   -17.4694     4.6837 C       5      m5     0.0000
   3651 H            8.6287   -17.5508     7.1102 H       5      m5     0.0168
   3652 H           10.8638   -19.7557     7.4353 H      12     m12     0.0170
   3653 H           12.1679   -19.3531     8.3229 H      12     m12     0.0176
   3654 C           12.9437   -19.2781     7.4769 C      12     m12    -0.0193
   3655 H           13.5426   -16.0969     9.2449 H      12     m12     0.0144
   3656 C           14.3107   -15.6989     8.3878 C      12     m12    -0.0137
   3657 C           14.3628   -18.6451     7.8395 C      12     m12     0.0031
   3658 C           14.9071   -18.9622     5.5399 C      12     m12    -0.0010
   3659 C           15.3505   -18.5754     6.8364 C      12     m12     0.0012
   3660 C           15.5989   -18.0383     4.7204 C      12     m12    -0.0179
   3661 C           16.6263   -17.9173     7.0005 C      12     m12    -0.0017
   3662 C           16.6474   -17.0777     4.7443 C      12     m12    -0.0198
   3663 C           17.0165   -17.8865     8.3302 C      12     m12     0.0037
   3664 C           17.3923   -16.9448     6.0064 C      12     m12     0.0070
   3665 H           17.9606   -18.7908     4.6770 H       1      m1     0.0219
   3666 C           18.3098   -17.2810     8.8242 C      12     m12    -0.0251
   3667 C          -18.2929   -14.1702     7.4824 C      12     m12     0.0055
   3668 H           18.2242   -12.7635     5.5996 H      12     m12     0.0188
   3669 C          -16.8569   -14.2308     7.6046 C      12     m12    -0.0242
   3670 H          -16.1438   -13.8696     6.9938 H      12     m12     0.0173
   3671 H          -17.1471   -12.3556     8.9188 H       8      m8     0.0145
   3672 C          -16.0624   -15.5658     7.9278 C      12     m12    -0.0115
   3673 H          -14.8245   -15.4488     8.1654 H      12     m12     0.0131
   3674 H          -14.5003   -12.9402     7.2140 H       8      m8     0.0145
   3675 C          -13.9432   -12.2974     8.0102 C       8      m8    -0.0239
   3676 H          -13.5649   -12.4352     5.2470 H       8      m8     0.0174
   3677 C          -13.0829   -13.1317     4.7536 C       8      m8    -0.0210
   3678 C          -12.5775   -12.8947     7.9912 C       8      m8     0.0007
   3679 C          -11.9787   -13.5192     5.4959 C       8      m8     0.0015
   3680 C          -11.6091   -12.8817     6.7604 C       8      m8    -0.0050
   3681 C          -11.1366   -14.7359     5.1537 C       8      m8    -0.0002
   3682 C          -10.1229   -13.1774     6.8481 C       8      m8    -0.0107
   3683 C           -9.9215   -15.2354     5.7265 C       8      m8     0.0023
   3684 C           -9.9904   -14.6200     7.1025 C       8      m8    -0.0141
   3685 H           -9.7269   -12.6565     5.8583 H       8      m8     0.0219
   3686 H           -9.9034   -15.0534     8.0924 H       8      m8     0.0189
   3687 C           -6.7847   -14.7786     5.5438 C       8      m8     0.0021
   3688 C           -6.6531   -13.5546     8.4996 C       8      m8     0.0031
   3689 C           -6.1269   -13.7650     5.8850 C       8      m8    -0.0212
   3690 C           -6.2236   -13.0739     7.2388 C       8      m8     0.0075
   3691 H           -5.6910   -11.5620     5.6968 H       8      m8     0.0235
   3692 H           -6.7466   -15.8467     8.8905 H       8      m8     0.0155
   3693 C           -5.9102   -11.7729     6.6403 C       8      m8    -0.0221
   3694 H           -5.2232   -13.5075     5.3219 H       8      m8     0.0164
   3695 H           -2.9516   -15.4689     4.8326 H       8      m8     0.0146
   3696 C           -1.8553   -14.0335     8.3932 C       1      m1     0.0066
   3697 C           -1.7746   -11.6305     8.1408 C       1      m1    -0.0176
   3698 C           -1.4677   -12.9264     7.5443 C       1      m1    -0.0210
   3699 C           -1.2287   -15.1962     8.1922 C       1      m1    -0.0238
   3700 H           -0.9821   -14.5779     5.5928 H       8      m8     0.0162
   3701 H           -0.6531   -12.9851     6.8559 H       1      m1     0.0171
   3702 H           -0.7910   -15.5303     7.2120 H       1      m1     0.0156
   3703 H            0.9544   -13.2991     4.2044 H       8      m8     0.0205
   3704 H            1.1820   -11.7631     8.0145 H       3      m3     0.0138
   3705 C            1.8475   -11.6505     7.1904 C       3      m3    -0.0225
   3706 C            2.8034   -12.5574     7.3790 C       3      m3    -0.0149
   3707 H            2.2893   -13.2009     8.2341 H       3      m3     0.0129
   3708 C            3.8631   -12.4676     6.5482 C       3      m3    -0.0096
   3709 C            3.8875   -11.7060     5.3584 C       3      m3     0.0021
   3710 H            4.2075   -14.3689     8.1679 H      31     m31     0.0160
   3711 H            4.7074   -13.5452     6.5342 H       3      m3     0.0139
   3712 C            5.0443   -13.8192     8.6030 C      31     m31    -0.0231
   3713 C            6.3921   -13.7182     8.1069 C      31     m31     0.0037
   3714 C            7.0335   -12.3121     8.5037 C      31     m31     0.0011
   3715 C            7.1961   -14.3160     7.0586 C      31     m31    -0.0182
   3716 C            7.3737   -13.4525     5.8071 C      31     m31    -0.0240
   3717 H            7.4130   -13.8052     4.8899 H      31     m31     0.0157
   3718 H            7.5286   -15.4103     7.1369 H      31     m31     0.0172
   3719 C            7.6560   -11.5600     7.4469 C      31     m31    -0.0036
   3720 C            7.8993   -12.0694     6.1077 C      31     m31     0.0056
   3721 C            8.1121   -11.3743     4.7984 C      31     m31    -0.0181
   3722 H            8.3138   -15.0228     4.7135 H       5      m5     0.0156
   3723 H           12.0687   -12.7603     8.0525 H       1      m1     0.0124
   3724 H           12.7931   -14.7801     7.1118 H      12     m12     0.0153
   3725 C           12.9634   -12.4234     8.8442 C       1      m1    -0.0161
   3726 C           13.8258   -15.1504     7.1277 C      12     m12    -0.0095
   3727 H           14.0321   -14.0771     5.2351 H      12     m12     0.0181
   3728 C           14.2436   -12.1563     8.5200 C       1      m1    -0.0166
   3729 C           14.4923   -14.5509     6.0657 C      12     m12    -0.0178
   3730 H           14.3461   -12.0494     7.4820 H       1      m1     0.0165
   3731 C           15.3416   -14.9156     8.7638 C      12     m12     0.0063
   3732 H           15.3318   -11.8088     5.0033 H      12     m12     0.0181
   3733 C           15.8591   -14.2048     6.6667 C      12     m12     0.0005
   3734 C           16.3250   -14.5180     8.0119 C      12     m12     0.0004
   3735 C           16.8533   -14.2368     5.6656 C      12     m12     0.0009
   3736 H           16.3617   -10.8638     7.9976 H       1      m1     0.0141
   3737 C           17.5918   -14.6154     8.5455 C      12     m12     0.0005
   3738 C           18.1529   -13.6694     6.2190 C      12     m12    -0.0229
   3739 C           18.3042    -7.7433     7.9373 C      29     m29    -0.0175
   3740 H          -17.8610    -7.9400     8.6755 H      29     m29     0.0132
   3741 C          -17.6681    -7.8686     6.8156 C      29     m29    -0.0230
   3742 H          -17.2770    -9.5253     9.2730 H       1      m1     0.0125
   3743 H          -16.8212    -8.2524     6.6944 H      29     m29     0.0183
   3744 H          -14.7928   -10.6986     5.4472 H       2      m2     0.0131
   3745 C          -14.5977    -9.7208     4.8464 C       2      m2    -0.0184
   3746 C          -14.2275    -8.4205     5.2818 C       2      m2    -0.0188
   3747 H          -13.8686    -8.4119     6.2838 H       2      m2     0.0145
   3748 H          -13.3383    -8.8195     8.4767 H       4      m4     0.0140
   3749 H          -12.6055    -6.4349     6.1708 H       2      m2     0.0109
   3750 H           -9.4844    -7.5083     5.8862 H       8      m8     0.0140
   3751 C           -8.9044    -8.3319     5.3644 C       8      m8    -0.0165
   3752 H           -7.5138    -6.7212     5.9192 H       8      m8     0.0162
   3753 C           -7.6561    -7.6823     5.6020 C       8      m8    -0.0220
   3754 C           -6.5750    -8.6630     5.6774 C       8      m8    -0.0019
   3755 C           -6.4246   -10.8628     8.7436 C       8      m8     0.0009
   3756 C           -5.9897   -10.6345     7.3214 C       8      m8     0.0034
   3757 C           -5.8027    -9.0771     6.8284 C       8      m8    -0.0021
   3758 C           -5.5413    -8.0850     7.7907 C       8      m8    -0.0190
   3759 H           -4.8682    -7.2196     7.5904 H       8      m8     0.0152
   3760 H           -3.0060    -6.9347     7.9009 H       1      m1     0.0137
   3761 C           -1.9072    -6.6937     7.7100 C       1      m1    -0.0156
   3762 H           -1.5995   -10.4361     8.0430 H       1      m1     0.0124
   3763 H           -0.9739    -8.3127     7.5704 H       1      m1     0.0160
   3764 C           -0.5881    -7.3491     7.7559 C       1      m1    -0.0174
   3765 H           -0.2319   -10.8337     6.6395 H       3      m3     0.0169
   3766 C            0.1184   -10.6419     5.6640 C       3      m3    -0.0203
   3767 C            0.7209    -6.8516     8.0636 C       1      m1     0.0020
   3768 C            1.5577   -11.0437     5.9940 C       3      m3     0.0029
   3769 H            2.5902    -7.5188     9.1810 H       1      m1     0.0150
   3770 C            2.5012   -11.1389     5.0107 C       3      m3    -0.0028
   3771 H            3.5284    -8.0416     5.6341 H       1      m1     0.0173
   3772 H            3.8826    -6.8549     7.8491 H       1      m1     0.0186
   3773 C            4.5336    -7.7281     5.1482 C       1      m1    -0.0164
   3774 C            5.2840    -6.9603     6.0080 C       1      m1     0.0028
   3775 C            6.0542    -9.4447     8.0406 C      31     m31    -0.0236
   3776 H            6.7040    -8.6306     7.9298 H      31     m31     0.0212
   3777 C            6.9063   -10.3837     7.1664 C      31     m31     0.0058
   3778 H            6.7226    -8.9654     5.8256 H      31     m31     0.0192
   3779 C            7.3506    -9.9038     6.1251 C      31     m31    -0.0135
   3780 C            7.9585    -9.9483     4.9035 C      31     m31    -0.0191
   3781 H           10.7369    -9.7662     8.6043 H       1      m1     0.0184
   3782 C           10.0703    -8.9041     8.8840 C       1      m1    -0.0151
   3783 C           10.3726    -7.7848     8.0411 C       1      m1     0.0045
   3784 C           11.1206    -7.9807     6.7727 C       1      m1    -0.0235
   3785 H           10.7158    -8.7903     6.3386 H       1      m1     0.0188
   3786 C           11.8869    -7.0482     6.2592 C       1      m1    -0.0067
   3787 H           12.3867    -7.1499     5.1121 H       1      m1     0.0117
   3788 C           17.4992    -6.9010     5.5760 C      29     m29     0.0022
   3789 C          -18.3875    -8.0477     5.5090 C      29     m29     0.0038
   3790 C          -18.3076    -2.2114     6.5954 C      29     m29    -0.0015
   3791 C          -18.1281    -3.4586     8.7632 C      29     m29    -0.0005
   3792 C          -17.7937    -3.5362     7.3252 C      29     m29     0.0026
   3793 C          -16.8305    -5.5298     8.5619 C      29     m29    -0.0087
   3794 H          -16.8390    -6.6289     8.9060 H      29     m29     0.0127
   3795 C          -16.4524    -3.9200     7.0360 C      29     m29     0.0038
   3796 C          -16.5180    -2.3596     4.8779 C      29     m29    -0.0155
   3797 C          -15.8129    -5.0170     7.7113 C      29     m29    -0.0159
   3798 C          -15.8998    -3.3450     5.6637 C      29     m29    -0.0219
   3799 H          -15.6899    -4.0967     5.0978 H      29     m29     0.0224
   3800 H          -14.7850    -5.3746     7.1670 H      29     m29     0.0153
   3801 C          -12.8155    -6.6200     4.9019 C       2      m2    -0.0168
   3802 C          -11.8198    -4.5895     8.9178 C      11     m11    -0.0220
   3803 C          -10.8542    -4.3059     7.9639 C      11     m11    -0.0074
   3804 H          -10.4769    -5.5865     7.6376 H      11     m11     0.0096
   3805 C          -10.1579    -3.0894     7.5602 C      11     m11    -0.0208
   3806 H           -9.7403    -2.8349     6.5335 H      11     m11     0.0131
   3807 H           -5.3359    -5.1324     4.9112 H       3      m3     0.0149
   3808 H           -3.1126    -3.3808     4.9968 H       3      m3     0.0107
   3809 H           -2.6222    -4.7790     6.8684 H       1      m1     0.0143
   3810 C           -1.7772    -5.2604     7.4042 C       1      m1    -0.0183
   3811 H           -1.4735    -2.9340     6.4005 H       1      m1     0.0099
   3812 C           -0.5000    -4.5824     7.3446 C       1      m1     0.0017
   3813 C           -0.3342    -3.2164     6.8083 C       1      m1    -0.0144
   3814 C            0.6339    -5.3287     7.8035 C       1      m1    -0.0007
   3815 C            0.8467    -2.4956     6.4940 C       1      m1    -0.0173
   3816 H            1.0938    -5.3201     4.6949 H       3      m3     0.0216
   3817 C            1.8179    -2.9905     7.4654 C       1      m1     0.0040
   3818 C            1.7254    -4.4387     8.0962 C       1      m1    -0.0036
   3819 C            2.9868    -4.7914     8.6188 C       1      m1     0.0026
   3820 C            2.9764    -2.2070     7.7989 C       1      m1    -0.0126
   3821 C            4.3973    -2.5297     6.8579 C       1      m1    -0.0194
   3822 C            4.5886    -6.4840     7.1413 C       1      m1    -0.0177
   3823 C            4.9815    -3.4877     7.0382 C       1      m1     0.0036
   3824 C            5.4014    -5.5476     8.1110 C       1      m1    -0.0150
   3825 C            5.7762    -4.4426     7.1215 C       1      m1    -0.0043
   3826 H            6.1489    -6.0230     8.6683 H       1      m1     0.0192
   3827 C            6.4656    -6.2096     5.4559 C       1      m1    -0.0013
   3828 C            6.9464    -4.9780     6.1813 C       1      m1     0.0030
   3829 H            8.6531    -3.5329     6.5224 H       1      m1     0.0146
   3830 C            8.1195    -4.4636     6.0464 C       1      m1    -0.0140
   3831 C            8.8406    -5.4187     5.2049 C       1      m1    -0.0184
   3832 H            9.4536    -6.2871     5.2286 H       1      m1     0.0203
   3833 C            9.8698    -3.7243     9.0426 C       1      m1    -0.0131
   3834 H           10.2762    -3.7469     6.6672 H       1      m1     0.0153
   3835 H            9.0446    -2.8498     9.4321 H       1      m1     0.0142
   3836 C           10.1396    -6.4458     8.5737 C       1      m1    -0.0017
   3837 C           10.3860    -4.1248     7.7101 C       1      m1    -0.0182
   3838 C           11.1004    -5.3982     7.5976 C       1      m1     0.0048
   3839 C           12.1878    -5.7477     6.7268 C       1      m1    -0.0226
   3840 H           13.0906    -5.1249     6.4765 H       1      m1     0.0182
   3841 C           15.2404    -4.6711     5.7152 C      29     m29    -0.0229
   3842 C           15.5910    -5.4827     4.5173 C      29     m29     0.0064
   3843 H           15.0796    -3.5597     5.5124 H      29     m29     0.0171
   3844 C           16.0215    -4.8824     6.7824 C      29     m29    -0.0002
   3845 H           16.8009    -2.7147     9.2861 H      29     m29     0.0161
   3846 C           16.8611    -3.6940     7.1138 C      29     m29     0.0012
   3847 C           17.0718    -2.4217     6.5458 C      29     m29    -0.0022
   3848 C           16.9779    -6.1193     6.6903 C      29     m29     0.0043
   3849 C           17.2144    -3.5022     8.6388 C      29     m29    -0.0209
   3850 H           16.7656    -6.3584     8.7916 H      29     m29     0.0159
   3851 C           17.3757    -6.5877     7.8511 C      29     m29    -0.0138
   3852 C          -18.2991    -0.6817     4.8165 C      29     m29    -0.0155
   3853 C          -17.5251    -1.6646     5.6097 C      29     m29     0.0010
   3854 H          -16.0664     0.1102     8.4388 H       1      m1     0.0160
   3855 C          -15.3747     0.6302     9.1844 C       1      m1    -0.0200
   3856 H          -13.6924     1.1624     7.2283 H       1      m1     0.0165
   3857 C          -13.2269     1.6181     8.0283 C       1      m1    -0.0172
   3858 C          -13.1735     1.1373     4.7290 C       1      m1    -0.0186
   3859 H          -12.6173     0.7911     5.7272 H       1      m1     0.0139
   3860 H          -10.7174     2.1990     5.8969 H       1      m1     0.0125
   3861 C          -10.2144    -1.9781     8.7345 C      11     m11     0.0038
   3862 C           -9.2028    -0.9890     8.8523 C      11     m11    -0.0169
   3863 H           -9.2333    -0.3342     7.8696 H      11     m11     0.0149
   3864 C           -3.7719     1.1036     8.4245 C       1      m1    -0.0006
   3865 C           -3.3373     2.3765     6.2835 C       1      m1     0.0017
   3866 C           -2.8928     0.1353     7.9332 C       1      m1     0.0076
   3867 H           -3.5002    -1.0439     4.9771 H       1      m1     0.0143
   3868 C           -2.8915     1.0177     5.7569 C       1      m1    -0.0014
   3869 C           -2.8574    -1.3369     8.4335 C       1      m1    -0.0178
   3870 C           -2.7998    -0.1999     6.5233 C       1      m1    -0.0257
   3871 H           -2.4469    -2.0964     7.7951 H       1      m1     0.0150
   3872 H           -2.2955    -1.0197     6.2813 H       1      m1     0.0168
   3873 H            1.1981    -1.3740     6.0376 H       1      m1     0.0122
   3874 H            3.1011    -1.0624     7.7096 H       1      m1     0.0200
   3875 C            4.1392     1.7585     7.2419 C       1      m1    -0.0149
   3876 C            4.7116    -0.0021     8.5461 C       1      m1    -0.0028
   3877 H            4.5780    -1.9300     5.9302 H       1      m1     0.0145
   3878 C            4.8773     0.6344     7.2100 C       1      m1    -0.0022
   3879 C            5.5602    -1.1650     8.6805 C       1      m1     0.0034
   3880 H            5.6534    -0.8124     5.6166 H       1      m1     0.0118
   3881 C            6.1121     0.1603     6.2654 C       1      m1    -0.0108
   3882 C            6.3526     1.6092     5.3149 C       1      m1    -0.0136
   3883 C            6.8686    -0.6981     8.5214 C       1      m1    -0.0197
   3884 C            7.1569    -0.4708     7.0837 C       1      m1    -0.0108
   3885 H            7.6549    -1.2430     9.0384 H       1      m1     0.0156
   3886 H            7.4862    -1.5098     6.7809 H       1      m1     0.0150
   3887 C            8.5603     1.3453     5.1352 C       1      m1     0.0070
   3888 C            8.7304     1.9492     6.5062 C       1      m1     0.0027
   3889 C            9.7796     0.4227     5.0374 C       1      m1    -0.0241
   3890 C            9.6593     2.0165     7.4802 C       1      m1     0.0010
   3891 C           10.5781     0.4482     6.1421 C       1      m1    -0.0155
   3892 C           10.7493     1.0959     7.4099 C       1      m1    -0.0025
   3893 H           11.1317    -0.4458     6.1779 H       1      m1     0.0146
   3894 C           11.6171     0.6303     8.4603 C       1      m1    -0.0020
   3895 C           12.9329    -0.2404     8.2440 C       1      m1    -0.0168
   3896 H           13.0509    -0.4818     7.1744 H       1      m1     0.0132
   3897 H           15.3446    -1.5464     5.6145 H      29     m29     0.0128
   3898 C           16.4450    -1.5005     5.5064 C      29     m29    -0.0162
   3899 C           17.1999    -0.6569     4.6977 C      29     m29    -0.0120
   3900 C           18.0618     1.9686     8.7729 C       1      m1    -0.0140
   3901 H           17.5837     0.9364     8.2488 H       1      m1     0.0119
   3902 C          -18.3143     3.0709     8.1260 C       1      m1    -0.0187
   3903 C          -18.2948     4.3742     8.8289 C       1      m1     0.0016
   3904 C          -17.6122     5.6370     8.1954 C       1      m1    -0.0244
   3905 H          -18.1483     3.2085     7.0205 H       1      m1     0.0159
   3906 H          -16.7770     5.5775     7.7693 H       1      m1     0.0198
   3907 C          -16.2347     4.3190     4.9442 C       1      m1    -0.0163
   3908 H          -15.8282     2.3351     6.0843 H       1      m1     0.0170
   3909 H          -16.0781     5.3867     5.2671 H       1      m1     0.0179
   3910 C          -15.5614     3.2593     5.5613 C       1      m1    -0.0351
   3911 H          -14.8569     3.8040     6.1804 H       1      m1     0.0210
   3912 C          -12.3252     2.5881     7.8834 C       1      m1    -0.0183
   3913 C          -11.9561     3.5797     8.9057 C       1      m1     0.0058
   3914 H          -11.8553     2.7999     6.9812 H       1      m1     0.0180
   3915 C          -11.4591     6.3755     6.6123 C       1      m1     0.0018
   3916 C          -11.5367     6.4495     5.2632 C       1      m1    -0.0003
   3917 C          -11.2081     2.4625     4.8601 C       1      m1    -0.0162
   3918 C          -10.7357     4.2721     8.7758 C       1      m1    -0.0219
   3919 C          -10.5367     5.6007     7.4033 C       1      m1    -0.0167
   3920 H          -10.0080     3.9287     8.0174 H       1      m1     0.0196
   3921 H          -10.7236     6.3363     8.3640 H       1      m1     0.0166
   3922 C           -9.3157     5.0995     5.2861 C       1      m1    -0.0249
   3923 C           -9.3933     5.1423     6.5262 C       1      m1    -0.0113
   3924 H           -8.6597     4.6684     4.7778 H       1      m1     0.0181
   3925 H           -8.4136     4.4100     6.8439 H       1      m1     0.0093
   3926 H           -7.4131     5.0528     8.6166 H       1      m1     0.0140
   3927 C           -4.6184     3.4799     8.4290 C       1      m1     0.0040
   3928 C           -4.1150     2.3325     7.6319 C       1      m1    -0.0011
   3929 C           -3.7925     4.5315     8.3519 C       1      m1    -0.0225
   3930 H           -3.6942     5.3260     9.0982 H       1      m1     0.0171
   3931 C           -3.0171     4.5331     7.0108 C       1      m1     0.0018
   3932 C           -3.2853     3.6422     6.0517 C       1      m1    -0.0229
   3933 H           -2.8538     3.9128     5.1056 H       1      m1     0.0176
   3934 C           -2.1270     5.5690     6.8715 C       1      m1     0.0035
   3935 H           -0.7017     3.9691     6.3213 H       1      m1     0.0165
   3936 C           -0.9284     5.0715     6.6110 C       1      m1    -0.0212
   3937 C           -0.0184     5.9384     5.9533 C       1      m1     0.0004
   3938 H            0.8515     4.3360     4.6957 H       1      m1     0.0184
   3939 C            1.1682     5.3227     5.0898 C       1      m1    -0.0340
   3940 H            1.9645     5.4304     5.9209 H       1      m1     0.0166
   3941 H            2.8963     3.8114     5.2593 H       1      m1     0.0146
   3942 H            3.3731     3.4872     7.7246 H       1      m1     0.0146
   3943 C            3.7990     2.6073     8.4066 C       1      m1    -0.0277
   3944 H            4.1155     2.0504     6.1659 H       1      m1     0.0143
   3945 H            5.3097     4.6997     4.7891 H       1      m1     0.0216
   3946 H            4.1826     2.9682     9.5455 H       1      m1     0.0167
   3947 C            5.8122     4.2436     5.7871 C       1      m1    -0.0223
   3948 C            6.5591     5.0641     6.5046 C       1      m1     0.0045
   3949 C            6.5417     2.8896     5.9535 C       1      m1     0.0059
   3950 C            7.3689     5.2238     7.4775 C       1      m1    -0.0218
   3951 C            7.5578     2.8121     6.9982 C       1      m1     0.0006
   3952 C            7.7555     3.9044     8.0514 C       1      m1     0.0018
   3953 H            7.9223     6.0605     8.0240 H       1      m1     0.0171
   3954 C            8.9354     4.0533     8.7946 C       1      m1    -0.0169
   3955 C            9.3782     5.6588     5.4549 C       1      m1    -0.0019
   3956 C            9.5706     2.6480     8.9505 C       1      m1     0.0020
   3957 C           10.1996     4.4274     5.3628 C       1      m1     0.0083
   3958 C           11.1053     6.5129     7.0208 C       1      m1     0.0049
   3959 C           11.4344     4.4066     6.0554 C       1      m1    -0.0194
   3960 C           11.8350     5.2381     6.9815 C       1      m1    -0.0121
   3961 H           11.8496     3.4329     6.0215 H       1      m1     0.0191
   3962 H           12.6211     4.7867     7.5752 H       1      m1     0.0190
   3963 C           14.0013     6.4723     9.0285 C       1      m1    -0.0221
   3964 H           14.8255     5.9234     8.5883 H       1      m1     0.0183
   3965 C           14.9153     6.7476     4.6823 C       1      m1     0.0022
   3966 C           15.8856     5.6298     5.0953 C       1      m1     0.0016
   3967 C           16.9975     6.5027     5.7970 C       1      m1    -0.0144
   3968 H           16.9933     5.7358     6.6057 H       1      m1     0.0195
   3969 H          -17.7053    11.9048     8.0997 H       1      m1     0.0132
   3970 C          -18.0385     6.9345     8.4999 C       1      m1    -0.0186
   3971 H          -17.2836     7.6658     8.3785 H       1      m1     0.0160
   3972 H          -16.2751    10.8915     8.6716 H       1      m1     0.0159
   3973 H          -14.7256     9.9108     5.2627 H       1      m1     0.0208
   3974 H          -15.1631     8.9581     8.5875 H       1      m1     0.0147
   3975 C          -14.6961     8.9597     5.1105 C       1      m1    -0.0220
   3976 C          -13.2415     8.4776     5.3518 C       1      m1    -0.0005
   3977 C          -12.9942     8.4946     6.9382 C       1      m1    -0.0070
   3978 C          -12.7172     7.4340     4.5959 C       1      m1     0.0005
   3979 C          -12.0912     7.6229     7.3681 C       1      m1    -0.0232
   3980 H          -11.8644     7.7640     8.4394 H       1      m1     0.0162
   3981 C          -10.8755    10.2736     8.3772 C       1      m1    -0.0199
   3982 H          -11.1868     9.5562     7.5556 H       1      m1     0.0180
   3983 H          -10.0067     8.5603     8.7181 H       1      m1     0.0180
   3984 H           -9.5586     9.1241     5.5812 H       1      m1     0.0177
   3985 C           -8.5661    10.7468     6.6210 C       1      m1    -0.0179
   3986 C           -8.7494     9.3903     6.1777 C       1      m1    -0.0163
   3987 H           -8.6726     7.4746     7.5854 H       1      m1     0.0159
   3988 C           -8.0883     8.4332     7.1976 C       1      m1    -0.0178
   3989 C           -6.9625     8.9547     7.9444 C       1      m1     0.0042
   3990 C           -6.8837    10.4658     8.3570 C       1      m1    -0.0034
   3991 H           -5.5910     6.9342     8.2061 H       1      m1     0.0135
   3992 C           -6.0715     7.9264     8.6807 C       1      m1    -0.0164
   3993 C           -4.5982     8.7894     8.6242 C       1      m1    -0.0324
   3994 C           -4.6078    10.1851     9.0746 C       1      m1     0.0009
   3995 H           -4.2481     8.6942     7.5826 H       1      m1     0.0174
   3996 H           -4.3693     8.6298     5.0184 H       1      m1     0.0175
   3997 H           -4.2323     8.0189     9.3905 H       1      m1     0.0213
   3998 H           -3.7066     6.9757     6.7902 H       1      m1     0.0146
   3999 H           -3.0157     9.6662     6.2282 H       1      m1     0.0158
   4000 C           -2.6018     6.8954     6.6223 C       1      m1    -0.0226
   4001 H           -2.0407    10.7850     8.5520 H       1      m1     0.0159
   4002 C           -2.1190     9.1821     5.7648 C       1      m1    -0.0194
   4003 C           -1.6848     7.8635     6.1422 C       1      m1     0.0028
   4004 C           -1.5983     9.9722     4.5599 C       1      m1    -0.0210
   4005 C           -0.7163     7.0861     5.2411 C       1      m1    -0.0021
   4006 C           -0.0724     9.5151     8.6935 C       1      m1    -0.0195
   4007 H           -0.1045     9.1456     7.6540 H       1      m1     0.0197
   4008 H            1.4464     8.8550     4.9286 H       1      m1     0.0199
   4009 C            2.2739     9.5223     5.4408 C       1      m1    -0.0196
   4010 C            2.4853    10.8084     5.2951 C       1      m1     0.0014
   4011 H            3.1824     7.6626     6.1153 H       1      m1     0.0148
   4012 H            2.6740    10.0403     8.1916 H       1      m1     0.0180
   4013 C            3.3774     8.8120     5.8461 C       1      m1    -0.0147
   4014 C            4.5636     9.4434     6.0965 C       1      m1    -0.0009
   4015 C            4.7893    10.7778     5.7275 C       1      m1    -0.0007
   4016 H            5.2237    10.9987     7.8265 H       1      m1     0.0230
   4017 C            6.0996     9.1571     6.2080 C       1      m1    -0.0211
   4018 H            6.2747     8.1568     6.7268 H       1      m1     0.0161
   4019 C            6.7992    10.6640     4.5957 C       1      m1    -0.0163
   4020 C            7.1280     9.4765     5.3365 C       1      m1     0.0022
   4021 C            8.1285     8.2692     5.0705 C       1      m1     0.0025
   4022 C            9.2740     8.0029     5.8985 C       1      m1    -0.0224
   4023 H            9.7943     8.3769     6.7047 H       1      m1     0.0206
   4024 C            9.9374     6.8490     5.9422 C       1      m1    -0.0014
   4025 H           10.7134     8.2120     8.2744 H       1      m1     0.0155
   4026 C           11.4557     7.3215     7.9575 C       1      m1    -0.0180
   4027 C           11.4922    10.7979     7.3740 C       1      m1    -0.0036
   4028 C           12.4854     6.3909     8.7413 C       1      m1     0.0032
   4029 C           12.7462    10.2756     6.7451 C       1      m1    -0.0032
   4030 C           12.8705     9.9259     5.1591 C       1      m1    -0.0055
   4031 C           13.4469     8.6160     4.9675 C       1      m1     0.0068
   4032 C           13.8750    10.1646     9.1813 C       1      m1    -0.0016
   4033 C           13.7596     9.8052     7.7053 C       1      m1     0.0027
   4034 C           14.7604     7.8591     5.3883 C       1      m1     0.0002
   4035 C           15.2248     9.5136     7.4587 C       1      m1    -0.0201
   4036 C           15.7025     8.3762     6.3471 C       1      m1     0.0010
   4037 H           15.6832    10.4433     7.6886 H       1      m1     0.0200
   4038 C           16.9575     7.9537     5.8855 C       1      m1    -0.0115
   4039 H           17.6210     9.6630     8.8082 H       1      m1     0.0182
   4040 H           17.5335     8.7612     6.6674 H       1      m1     0.0145
   4041 H          -17.3409    12.1413     4.7645 H       1      m1     0.0133
   4042 C          -16.2182    12.0965     4.8176 C       1      m1    -0.0220
   4043 H          -16.4053    12.7775     7.5252 H       1      m1     0.0148
   4044 C          -15.3055    14.8078     6.8349 C       1      m1    -0.0229
   4045 C          -15.5973    13.4019     7.0179 C       1      m1    -0.0158
   4046 C          -15.2854    12.8152     5.7560 C       1      m1     0.0038
   4047 C          -15.1657    14.8946     5.2800 C       1      m1     0.0035
   4048 C          -14.1024    13.8022     5.2604 C       1      m1    -0.0178
   4049 H          -13.2128    14.0997     5.8151 H       1      m1     0.0191
   4050 H          -11.2414    11.8781     7.1232 H       1      m1     0.0145
   4051 H          -11.3718    14.3835     7.6379 H       1      m1     0.0173
   4052 C          -11.2598    13.9533     8.7011 C       1      m1    -0.0249
   4053 C          -11.0136    11.6794     8.2420 C       1      m1    -0.0148
   4054 C          -10.8518    12.6792     9.1044 C       1      m1     0.0054
   4055 H           -9.4382    13.5789     4.9661 H       1      m1     0.0190
   4056 H           -8.9987    11.4323     5.9708 H       1      m1     0.0167
   4057 H           -8.8318    13.0503     7.4309 H       1      m1     0.0183
   4058 C           -8.3209    13.2915     4.9597 C       1      m1    -0.0403
   4059 H           -8.0390    12.3892     4.5270 H       1      m1     0.0214
   4060 C           -7.8757    12.7420     7.8396 C       1      m1    -0.0177
   4061 C           -7.7825    11.2602     7.7735 C       1      m1     0.0064
   4062 C           -7.6082    15.2662     5.9729 C       1      m1    -0.0029
   4063 C           -7.5362    13.9525     5.8793 C       1      m1     0.0038
   4064 C           -6.2017    13.2646     6.0977 C       1      m1     0.0048
   4065 C           -5.6919    10.9699     9.1124 C       1      m1    -0.0025
   4066 C           -5.6046    12.8225     4.7737 C       1      m1    -0.0066
   4067 H           -5.0858    15.3556     7.1002 H       1      m1     0.0153
   4068 C           -5.0977    14.0759     6.7455 C       1      m1    -0.0300
   4069 H           -4.7085    13.6300     7.6692 H       1      m1     0.0201
   4070 C           -3.9713    14.4886     5.8724 C       1      m1     0.0055
   4071 C           -3.3353    13.5910     4.9450 C       1      m1    -0.0029
   4072 H            0.7716    14.9451     4.3233 H       1      m1     0.0183
   4073 H            1.5526    13.9133     7.0309 H       1      m1     0.0157
   4074 C            2.6014    14.0358     7.7142 C       1      m1    -0.0157
   4075 C            2.8020    13.7236     4.9636 C       1      m1    -0.0217
   4076 H            2.7910    14.6395     4.4808 H       1      m1     0.0147
   4077 H            2.7044    12.0772     7.4144 H       1      m1     0.0183
   4078 C            3.3709    12.8340     8.0089 C       1      m1    -0.0158
   4079 C            3.2712    15.2516     8.1790 C       1      m1     0.0040
   4080 C            3.6294    11.4349     5.2044 C       1      m1    -0.0027
   4081 C            3.8777    12.8568     5.2185 C       1      m1     0.0076
   4082 C            4.6977    12.7040     8.8658 C       1      m1     0.0063
   4083 C            4.7581    14.9273     8.4108 C       1      m1    -0.0029
   4084 H            5.0305    14.8798     4.9335 H       1      m1     0.0178
   4085 C            5.0768    13.7874     5.1605 C       1      m1    -0.0180
   4086 C            5.3711    11.3834     8.7346 C       1      m1    -0.0265
   4087 C            6.0115    13.0262     5.8201 C       1      m1    -0.0125
   4088 C            6.0195    11.5198     5.5793 C       1      m1     0.0007
   4089 H            6.9886    13.3966     6.4110 H       1      m1     0.0187
   4090 H            8.1358    11.6418     7.7319 H       1      m1     0.0197
   4091 H            9.1769    13.7161     8.9268 H       1      m1     0.0168
   4092 C            9.1566    11.6602     7.5354 C       1      m1    -0.0147
   4093 C            9.5831    12.8202     8.4082 C       1      m1    -0.0218
   4094 C           10.1502    11.0870     6.6854 C       1      m1    -0.0192
   4095 H           10.6456    11.7197     6.0265 H       1      m1     0.0203
   4096 C           11.9693    11.6293     8.6091 C       1      m1    -0.0015
   4097 H           15.2546    11.6508     5.6674 H       1      m1     0.0176
   4098 C           15.4276    11.2759     4.5921 C       1      m1    -0.0142
   4099 C           16.2575    15.1091     8.6395 C       1      m1    -0.0002
   4100 H           16.3523    14.4404     6.5519 H       1      m1     0.0177
   4101 C           17.2074    12.7943     8.1976 C       1      m1     0.0000
   4102 C           17.3274    13.7830     6.8362 C       1      m1    -0.0283
   4103 H           17.7468    13.0667     5.9835 H       1      m1     0.0145
   4104 H           17.8242    11.9150     4.3324 H       1      m1     0.0109
   4105 C           18.0780    11.6687     8.7356 C       1      m1    -0.0213
   4106 C           18.3636    14.8967     7.0787 C       1      m1    -0.0168
   4107 H          -18.0299    15.1549     6.1272 H       1      m1     0.0176
   4108 C          -17.6396    19.2597     4.4671 C       1      m1    -0.0018
   4109 H          -16.8399    17.0011     5.7168 H       1      m1     0.0199
   4110 C          -16.5019    17.0924     4.7713 C       1      m1    -0.0200
   4111 H          -16.9109    19.3673     7.3376 H       1      m1     0.0152
   4112 C          -16.6093    18.0867     8.8885 C       1      m1     0.0056
   4113 C          -16.0660    18.8419     7.8697 C       1      m1    -0.0228
   4114 H          -15.6913    15.4015     7.3844 H       1      m1     0.0251
   4115 C          -15.0916    16.2039     4.7519 C       1      m1    -0.0003
   4116 C          -14.6508    18.5336     7.6994 C       1      m1    -0.0132
   4117 H          -14.2554    19.5031     6.9672 H       1      m1     0.0151
   4118 H          -14.3320    18.6929     4.7187 H       1      m1     0.0228
   4119 C          -13.6297    17.4955     8.0157 C       1      m1     0.0045
   4120 C          -12.3212    17.5938     7.9050 C       1      m1    -0.0212
   4121 H          -11.7652    18.2282     7.2279 H       1      m1     0.0209
   4122 C          -11.5522    16.7367     8.8420 C       1      m1    -0.0146
   4123 C          -10.5392    19.1751     4.8404 C       1      m1    -0.0008
   4124 H           -9.4613    19.4847     7.9364 H       1      m1     0.0197
   4125 C           -9.5826    19.0804     6.9923 C       1      m1    -0.0280
   4126 C           -8.8562    17.3475     5.3790 C       1      m1    -0.0040
   4127 C           -8.8250    18.0179     6.6036 C       1      m1     0.0066
   4128 C           -8.1542    16.3043     5.0715 C       1      m1     0.0002
   4129 C           -7.6874    17.4802     7.4797 C       1      m1    -0.0255
   4130 H           -7.3943    17.9080     8.3655 H       1      m1     0.0168
   4131 C           -7.2647    16.3105     6.9521 C       1      m1    -0.0117
   4132 H           -6.4995    16.2496     7.8108 H       1      m1     0.0138
   4133 H           -3.5876    16.7839     6.6914 H       1      m1     0.0141
   4134 C           -3.3815    15.8114     6.0740 C       1      m1    -0.0216
   4135 H           -3.1517    18.2130     6.3133 H       1      m1     0.0161
   4136 C           -2.4195    19.7636     6.9355 C       1      m1    -0.0199
   4137 C           -2.1944    18.5129     6.6230 C       1      m1    -0.0169
   4138 C           -2.2274    16.1174     5.2439 C       1      m1     0.0011
   4139 C           -1.0381    17.1368     5.0849 C       1      m1    -0.0026
   4140 C           -0.8976    18.2321     5.9383 C       1      m1     0.0038
   4141 C            0.0778    18.9876     6.5008 C       1      m1    -0.0040
   4142 C            1.2420    18.2718     6.2407 C       1      m1     0.0027
   4143 C            1.4548    17.2527     5.2094 C       1      m1    -0.0369
   4144 H            1.4270    16.4340     7.3210 H       1      m1     0.0201
   4145 H            2.2443    16.3954     5.5226 H       1      m1     0.0172
   4146 C            2.3813    18.4633     7.1998 C       1      m1    -0.0021
   4147 C            2.5563    16.1898     7.5580 C       1      m1    -0.0227
   4148 C            3.3416    17.3620     7.5603 C       1      m1     0.0034
   4149 H            5.1498    16.5145     6.3617 H       1      m1     0.0239
   4150 C            4.9254    17.0712     7.2214 C       1      m1    -0.0393
   4151 H            5.5604    17.8679     7.1051 H       1      m1     0.0237
   4152 C            5.3864    16.2519     8.4618 C       1      m1     0.0008
   4153 H            6.0506   -19.9091     5.5801 H      12     m12     0.0189
   4154 C            6.5986    17.5767     5.0942 C      12     m12     0.0009
   4155 C            6.8003    18.9645     5.4173 C      12     m12    -0.0194
   4156 C            8.0381    17.1683     4.8664 C      12     m12    -0.0014
   4157 C            8.0468    19.2867     6.1392 C      12     m12    -0.0015
   4158 C            9.4727    17.5674     4.9478 C      12     m12    -0.0002
   4159 C            9.4237    18.8043     5.9029 C      12     m12     0.0023
   4160 C           10.6500    19.2047     6.5311 C      12     m12    -0.0116
   4161 C           11.5079    18.1741     4.8408 C      12     m12    -0.0164
   4162 C           11.8747    18.5443     6.2359 C      12     m12    -0.0053
   4163 C           12.9164    19.5439     6.4689 C      12     m12     0.0034
   4164 C           13.7449   -19.9244     5.4478 C      12     m12    -0.0222
   4165 H           14.2949    15.9374     8.9924 H       1      m1     0.0192
   4166 C           15.4902    16.4260     4.6790 C       1      m1    -0.0193
   4167 H           15.2963    15.9363     5.6454 H       1      m1     0.0161
   4168 H           17.3933    16.7099     7.8848 H       1      m1     0.0173
   4169 C           17.6437    15.6477     8.1834 C       1      m1    -0.0122
   4170 C           17.9059    18.4244     4.9349 C       1      m1    -0.0352
   4171 H          -18.2492    19.1288     9.1464 H       1      m1     0.0213
   4172 H           18.1106    18.4948     6.0385 H       1      m1     0.0163
   4173 H          -18.4139   -16.9821     9.8894 H      12     m12     0.0170
   4174 H          -17.5621   -17.2296    13.4886 H       1      m1     0.0148
   4175 C          -14.0551   -19.8154    12.9248 C       1      m1    -0.0172
   4176 C          -13.2458   -18.8189    12.5424 C       1      m1    -0.0200
   4177 H          -12.5424   -18.7476    11.6619 H       1      m1     0.0154
   4178 C          -12.0082   -17.0490    13.7005 C       1      m1    -0.0157
   4179 H          -11.3677   -16.9664    12.7884 H       1      m1     0.0152
   4180 H          -10.4325   -17.1451    10.0760 H       1      m1     0.0205
   4181 C           -9.5281   -17.6284    10.0324 C       1      m1    -0.0416
   4182 H           -8.7877   -17.9141    10.7702 H       1      m1     0.0167
   4183 H           -7.6725   -16.1864    13.6847 H       4      m4     0.0107
   4184 H           -7.2794   -15.1617    11.5143 H       8      m8     0.0123
   4185 H           -5.7802   -19.5225    11.1481 H       1      m1     0.0147
   4186 H           -4.1626   -16.0505    11.5688 H       1      m1     0.0137
   4187 H           -3.4562   -19.3473    11.3578 H       1      m1     0.0123
   4188 H           -3.4044   -17.2506    13.2164 H       1      m1     0.0166
   4189 H           -2.5221   -16.9170    10.9148 H       1      m1     0.0199
   4190 C           -2.6487   -18.5783    12.0415 C       1      m1    -0.0209
   4191 C           -2.5213   -17.7979    13.0801 C       1      m1    -0.0168
   4192 H           -2.3244   -18.5859     9.6145 H       1      m1     0.0154
   4193 C           -2.2310   -16.0336    10.2315 C       1      m1    -0.0210
   4194 C           -1.5897   -19.4034    11.7398 C       1      m1     0.0010
   4195 C           -1.2422   -18.6487     9.0850 C       1      m1    -0.0129
   4196 C           -1.3001   -17.1437    13.4718 C       1      m1     0.0008
   4197 C           -0.3390   -18.7937    11.9311 C       1      m1     0.0006
   4198 C           -0.1494   -17.3426    12.5426 C       1      m1    -0.0009
   4199 C            0.6251   -16.3478    11.8250 C       1      m1    -0.0016
   4200 C            0.8418   -19.0714    11.2217 C       1      m1     0.0031
   4201 C            2.0178   -16.7564    11.6231 C       1      m1     0.0017
   4202 C            2.2001   -18.1943    10.9789 C       1      m1    -0.0326
   4203 H            2.0184   -17.9113     9.8445 H       1      m1     0.0180
   4204 H            3.4053   -18.0649    11.4010 H       1      m1     0.0135
   4205 C            3.0980   -15.9122    10.9925 C       1      m1    -0.0401
   4206 H            3.5585   -16.7313    10.3605 H       1      m1     0.0156
   4207 H            5.4753   -19.2442    11.7481 H       1      m1     0.0156
   4208 C            6.2049   -18.7921    11.0382 C       1      m1    -0.0228
   4209 H            6.5497   -16.9694    11.8114 H       1      m1     0.0153
   4210 C            7.0618   -19.6749    10.2556 C       1      m1     0.0089
   4211 C            7.0735   -17.7137    11.2520 C       1      m1    -0.0178
   4212 C            8.6309   -17.6687    10.9906 C       1      m1     0.0030
   4213 H            8.6170   -19.8180    13.5837 H       1      m1     0.0190
   4214 H            9.1021   -15.7888    12.2044 H       1      m1     0.0159
   4215 C            8.4871   -19.6249     9.8813 C       1      m1    -0.0059
   4216 C            9.4104   -16.5951    11.6386 C       1      m1    -0.0182
   4217 C            9.4308   -18.6530    10.3465 C       1      m1    -0.0008
   4218 C           10.7589   -16.3253    11.4925 C       1      m1    -0.0176
   4219 C           10.8812   -18.6661    10.6091 C       1      m1     0.0005
   4220 C           11.4428   -17.3818    10.8262 C       1      m1    -0.0165
   4221 H           12.4321   -16.9999    10.7881 H       1      m1     0.0145
   4222 H           14.1872   -19.1496     9.9610 H      12     m12     0.0185
   4223 C           15.0041   -18.9787     9.1465 C      12     m12    -0.0134
   4224 H           14.9873   -18.4636    11.4801 H       1      m1     0.0158
   4225 C           15.6305   -19.4052    11.5213 C       1      m1    -0.0325
   4226 C           16.1297   -18.4023     9.3625 C      12     m12    -0.0135
   4227 H           16.9176   -18.0040    10.1568 H      12     m12     0.0162
   4228 H           16.5833   -18.8396    11.8778 H       1      m1     0.0169
   4229 H          -17.9049   -15.6976     9.4523 H      12     m12     0.0197
   4230 H          -17.2350   -13.3253    13.2501 H       8      m8     0.0152
   4231 H          -17.1526   -13.7668    10.8194 H       8      m8     0.0170
   4232 C          -16.2096   -13.1129    10.5953 C       8      m8    -0.0176
   4233 C          -16.1292   -13.0069    13.0960 C       8      m8    -0.0173
   4234 C          -15.7213   -12.6841     9.3418 C       8      m8    -0.0115
   4235 C          -15.5038   -12.6996    11.8638 C       8      m8     0.0035
   4236 C          -14.3712   -12.1010     9.3096 C       8      m8     0.0054
   4237 C          -14.1326   -12.1013    11.7547 C       8      m8     0.0028
   4238 C          -13.5976   -11.5113    10.5842 C       8      m8    -0.0189
   4239 C          -13.5631   -12.0280    13.0793 C       8      m8     0.0020
   4240 C          -12.2603   -12.2770    10.4245 C       8      m8     0.0058
   4241 C          -12.0487   -11.8403    12.8507 C       8      m8    -0.0150
   4242 C          -11.9198   -12.7546     9.2076 C       8      m8    -0.0075
   4243 C          -11.3529   -11.9226    11.5392 C       8      m8    -0.0202
   4244 H          -10.3924   -12.1487    11.7416 H       8      m8     0.0174
   4245 C           -7.7137   -13.4346    11.2695 C       8      m8    -0.0197
   4246 C           -7.3738   -14.5781    10.5314 C       8      m8    -0.0121
   4247 C           -7.3386   -12.1469    10.5351 C       8      m8     0.0012
   4248 H           -8.4581   -13.2259    12.2486 H       8      m8     0.0108
   4249 C           -6.9683   -12.1831     9.2440 C       8      m8     0.0018
   4250 C           -6.8150   -14.7284     9.1915 C       8      m8    -0.0154
   4251 C           -6.1250   -11.4585    11.3181 C       8      m8    -0.0174
   4252 H           -5.7385   -12.0881    11.9695 H       8      m8     0.0209
   4253 H           -3.8611   -14.6987    13.0553 H       1      m1     0.0146
   4254 H           -3.5436   -11.3255    13.1507 H       1      m1     0.0147
   4255 C           -3.9086   -15.0858    11.2262 C       1      m1    -0.0204
   4256 C           -3.8146   -13.9532    12.1343 C       1      m1    -0.0173
   4257 C           -3.3440   -11.4451    12.0953 C       1      m1    -0.0233
   4258 C           -3.2903   -12.6457    11.5445 C       1      m1     0.0063
   4259 C           -3.1039   -12.7597    10.0501 C       1      m1     0.0009
   4260 C           -3.1213   -15.0346    10.1578 C       1      m1     0.0087
   4261 C           -2.7874   -13.8168     9.5951 C       1      m1    -0.0028
   4262 C           -2.4825   -11.6993     9.5024 C       1      m1     0.0049
   4263 H           -0.1683   -14.5957    11.4627 H       1      m1     0.0215
   4264 C           -0.7329   -14.7480    13.3868 C       1      m1    -0.0210
   4265 C           -0.4639   -15.4102    12.1075 C       1      m1    -0.0115
   4266 H           -0.2945   -12.0104    10.0214 H      31     m31     0.0197
   4267 C            0.3019   -11.3905    10.6987 C      31     m31    -0.0195
   4268 C            1.6521   -11.8961    11.0568 C      31     m31     0.0045
   4269 C            2.0052   -11.8786    12.5982 C      31     m31    -0.0003
   4270 H            2.4236   -11.9250     8.9131 H      31     m31     0.0184
   4271 C            2.6829   -12.1760    10.0500 C      31     m31    -0.0201
   4272 C            3.1647   -12.5407    13.3906 C      31     m31     0.0027
   4273 H            3.7654   -15.3584    11.6193 H       1      m1     0.0208
   4274 C            3.8528   -12.7056    10.6214 C      31     m31     0.0012
   4275 C            3.9513   -12.6366    12.2148 C      31     m31    -0.0102
   4276 C            5.0153   -13.2112     9.7957 C      31     m31     0.0029
   4277 C            6.2555   -12.5238    10.4621 C      31     m31    -0.0183
   4278 H            6.1745   -12.9809    11.5542 H      31     m31     0.0163
   4279 C            6.8517   -11.4131     9.5635 C      31     m31     0.0023
   4280 H            9.4467   -12.4512    12.2946 H       1      m1     0.0129
   4281 C           10.3690   -11.9953    11.6908 C       1      m1    -0.0107
   4282 H           10.5052   -12.9972     9.6801 H       1      m1     0.0184
   4283 C           11.0204   -12.5526    10.4500 C       1      m1    -0.0220
   4284 H           11.1193   -15.3480    11.7996 H       1      m1     0.0136
   4285 C           11.1812   -11.0844    12.4133 C       1      m1    -0.0183
   4286 C           12.4383   -12.1967    10.1915 C       1      m1     0.0030
   4287 C           13.3877   -11.3282    10.8635 C       1      m1    -0.0024
   4288 H           14.9092   -15.3584    11.2626 H      12     m12     0.0125
   4289 H           14.5275   -12.2184    12.7042 H       1      m1     0.0237
   4290 C           15.2819   -11.3228     9.5314 C       1      m1     0.0004
   4291 C           15.0287   -12.6551    13.5376 C       1      m1    -0.0362
   4292 C           15.6160   -15.1435    10.3448 C      12     m12    -0.0149
   4293 C           16.7935   -15.6414    10.9808 C      12     m12    -0.0117
   4294 H           16.5666   -11.6704    12.8215 H       1      m1     0.0194
   4295 C           17.8848   -15.3381     9.8174 C      12     m12    -0.0186
   4296 C          -18.2990    -9.8699    10.9860 C       1      m1    -0.0132
   4297 H           17.8319    -7.6104    11.1867 H       1      m1     0.0166
   4298 C          -17.5577    -8.6354    12.6382 C       1      m1    -0.0008
   4299 C          -17.1433    -9.5642    10.3957 C       1      m1    -0.0152
   4300 C          -16.3253    -9.4466    12.4805 C       1      m1     0.0020
   4301 C          -16.1071    -9.4633    10.9735 C       1      m1    -0.0158
   4302 H          -15.5174    -7.9093     8.8683 H       4      m4     0.0117
   4303 H          -15.1760   -10.6586    13.9103 H       1      m1     0.0205
   4304 H          -15.3374    -9.6012    10.2780 H       1      m1     0.0190
   4305 C          -15.4320    -9.5596    13.6459 C       1      m1    -0.0113
   4306 C          -14.7876    -7.1927    10.8936 C       4      m4     0.0046
   4307 C          -14.6658    -7.6366     9.6232 C       4      m4    -0.0187
   4308 C          -14.0752    -7.5519    12.1815 C       4      m4    -0.0009
   4309 H          -13.5843   -10.3711    10.7133 H       8      m8     0.0211
   4310 C          -13.4055    -8.2690     9.4278 C       4      m4    -0.0219
   4311 C          -12.7112    -8.0466    12.0389 C       4      m4     0.0003
   4312 C          -12.7253    -8.4926    10.5627 C       4      m4     0.0024
   4313 H          -11.4540   -10.0116     9.7518 H       4      m4     0.0193
   4314 C          -11.5333    -9.3753    10.5830 C       4      m4    -0.0180
   4315 C          -11.6731    -7.8835    13.1004 C       4      m4    -0.0010
   4316 C          -10.6393    -9.0283    12.6277 C       4      m4    -0.0155
   4317 C          -10.4045    -9.3931    11.4255 C       4      m4    -0.0117
   4318 H           -9.8207    -9.3954    13.3041 H       4      m4     0.0145
   4319 H           -9.3809   -10.0135    11.2076 H       4      m4     0.0138
   4320 H           -8.0877    -7.1330    10.2290 H       8      m8     0.0203
   4321 C           -7.2417    -6.7434    10.6922 C       8      m8    -0.0227
   4322 H           -6.1644    -9.1633    12.0774 H       8      m8     0.0157
   4323 C           -6.2615    -9.7603     9.7468 C       8      m8     0.0020
   4324 C           -6.1916   -10.0558    11.2371 C       8      m8    -0.0148
   4325 C           -6.0933    -7.4226    10.3965 C       8      m8     0.0021
   4326 C           -5.7238    -8.4952     9.1857 C       8      m8    -0.0037
   4327 C           -4.9664    -6.9548    11.0752 C       8      m8    -0.0215
   4328 H           -4.2360    -7.5813    10.5527 H       8      m8     0.0194
   4329 H           -2.9274    -9.7268    12.1355 H       1      m1     0.0147
   4330 C           -3.1315   -10.2594    11.1943 C       1      m1    -0.0083
   4331 C           -2.4909   -10.2855     9.9379 C       1      m1    -0.0217
   4332 H           -1.7302    -9.7057     9.7196 H       1      m1     0.0170
   4333 H           -0.7294    -8.0423    12.9323 H      31     m31     0.0147
   4334 C           -0.3412    -8.8179    13.5543 C      31     m31    -0.0190
   4335 H            0.2254    -9.0740    10.4555 H      31     m31     0.0178
   4336 C            0.2731    -9.9022    11.1727 C      31     m31    -0.0181
   4337 C            0.3484    -9.8432    12.5597 C      31     m31     0.0047
   4338 H            0.6912    -6.9985    12.9296 H       1      m1     0.0190
   4339 C            1.0629   -10.9798    13.1684 C      31     m31     0.0015
   4340 C            1.4388    -7.1135     9.2413 C       1      m1    -0.0199
   4341 C            1.4733    -7.0173    10.6689 C       1      m1     0.0038
   4342 C            2.8556    -7.9407    11.0744 C       1      m1    -0.0226
   4343 H            3.4965    -8.3363    10.3645 H       1      m1     0.0162
   4344 C            3.6258    -7.3529    12.1252 C       1      m1     0.0053
   4345 H            5.2586    -9.6711     9.7813 H      31     m31     0.0159
   4346 C            5.1520    -7.2291    11.5423 C       1      m1    -0.0213
   4347 H            5.4118    -8.1633    10.9401 H       1      m1     0.0157
   4348 C            6.0061   -10.2681     9.1846 C      31     m31    -0.0121
   4349 H            8.1174    -8.1071    12.3140 H       1      m1     0.0141
   4350 C            8.2196    -7.1852    11.4383 C       1      m1    -0.0190
   4351 C            9.4265    -7.2926    10.6285 C       1      m1    -0.0032
   4352 H           10.6739    -8.6858    11.1485 H       1      m1     0.0158
   4353 C           10.1073    -8.4784    10.1413 C       1      m1    -0.0136
   4354 H           11.2636   -10.8173    13.5226 H       1      m1     0.0168
   4355 C           12.7248   -11.1462    12.2929 C       1      m1    -0.0031
   4356 C           13.5542   -10.1048    12.9527 C       1      m1    -0.0105
   4357 C           13.7947    -8.7863    12.2534 C       1      m1    -0.0123
   4358 H           12.6583    -8.2297    11.9084 H       1      m1     0.0152
   4359 C           14.4216   -10.5444    10.4775 C       1      m1    -0.0021
   4360 C           14.8866    -9.2828    11.3039 C       1      m1    -0.0006
   4361 C           16.3426    -9.2313    11.2353 C       1      m1    -0.0044
   4362 H           15.4889    -6.9060    10.8118 H      30     m30     0.0155
   4363 C           16.4891   -10.8787     9.3292 C       1      m1    -0.0131
   4364 C           16.8456    -8.6988    12.5163 C       1      m1    -0.0005
   4365 C           17.2141    -9.8084     9.9783 C       1      m1    -0.0156
   4366 H           17.2294    -8.9069     9.4245 H       1      m1     0.0174
   4367 H          -18.1557   -10.2415    11.9021 H       1      m1     0.0241
   4368 C           18.2197    -8.5908    11.6224 C       1      m1    -0.0167
   4369 H          -18.3310    -5.2023    10.2138 H      29     m29     0.0131
   4370 C          -17.7177    -4.7046     9.3682 C      29     m29    -0.0178
   4371 H          -16.7895    -6.0532    10.6108 H       4      m4     0.0149
   4372 H          -16.5201    -4.5926    12.6186 H       4      m4     0.0140
   4373 C          -15.8623    -6.1322    11.3091 C       4      m4    -0.0133
   4374 C          -15.9365    -5.3650    12.3853 C       4      m4    -0.0168
   4375 H          -14.6905    -2.6476    11.5560 H      11     m11     0.0172
   4376 C          -14.6555    -5.2715    13.2216 C       4      m4    -0.0188
   4377 C          -13.6009    -2.7022    11.5578 C      11     m11    -0.0190
   4378 C          -13.7397    -6.3413    13.0910 C       4      m4     0.0062
   4379 H          -13.0667    -4.6958    11.1771 H      11     m11     0.0211
   4380 C          -13.0841    -3.6805    10.6326 C      11     m11    -0.0155
   4381 H          -12.2295    -5.5776     8.8402 H      11     m11     0.0178
   4382 C          -12.2145    -3.4004     9.5381 C      11     m11     0.0076
   4383 H           -9.3093    -2.4837    11.8217 H       8      m8     0.0203
   4384 H           -9.4161    -5.5832    12.4969 H       8      m8     0.0190
   4385 C           -8.7797    -3.5665    12.1823 C       8      m8    -0.0133
   4386 C           -8.5196    -4.9815    12.0345 C       8      m8    -0.0145
   4387 C           -7.4083    -3.1105    12.5286 C       8      m8     0.0030
   4388 C           -7.1808    -5.6202    11.6080 C       8      m8     0.0049
   4389 C           -6.0835    -3.6803    12.1958 C       8      m8    -0.0009
   4390 C           -5.8707    -5.0504    11.8425 C       8      m8    -0.0013
   4391 C           -4.8224    -2.9888    12.6892 C       8      m8     0.0018
   4392 C           -4.5211    -5.7698    11.7788 C       8      m8     0.0035
   4393 C           -3.5878    -3.6195    12.0419 C       8      m8    -0.0180
   4394 C           -3.2823    -5.0417    12.0629 C       8      m8    -0.0180
   4395 H           -2.6957    -2.8961    11.8410 H       8      m8     0.0149
   4396 H           -2.7918    -2.3972    10.0942 H       1      m1     0.0175
   4397 H           -2.0646    -5.2569    11.9219 H       8      m8     0.0142
   4398 C            1.1311    -6.4374    12.0221 C       1      m1    -0.0211
   4399 C            2.1472    -5.5943    12.7838 C       1      m1     0.0027
   4400 H            3.1520    -2.9736    10.0739 H       1      m1     0.0207
   4401 C            3.3723    -2.2297     9.4012 C       1      m1    -0.0117
   4402 C            3.5225    -6.0130    12.6665 C       1      m1    -0.0013
   4403 H            4.2815    -5.8462     9.9682 H       1      m1     0.0209
   4404 C            4.1220    -5.2879     9.0826 C       1      m1    -0.0256
   4405 C            4.4321    -5.0599    13.2664 C       1      m1    -0.0005
   4406 C            4.8714    -2.4559     9.4991 C       1      m1    -0.0336
   4407 H            5.3661    -3.4659     9.1751 H       1      m1     0.0209
   4408 C            5.8834    -5.3604    12.9616 C       1      m1    -0.0002
   4409 C            6.0966    -6.0561    11.6587 C       1      m1    -0.0049
   4410 H            6.8613    -4.0839    10.1012 H       1      m1     0.0168
   4411 C            6.9968    -4.5671    13.5571 C       1      m1    -0.0131
   4412 C            7.3324    -6.1611    10.9926 C       1      m1     0.0006
   4413 C            7.6947    -4.7138    10.1532 C       1      m1    -0.0250
   4414 H            8.1310    -5.1337    13.0627 H       1      m1     0.0135
   4415 C            8.9874    -4.6536     9.8417 C       1      m1     0.0007
   4416 C            9.2853    -6.1266     9.5426 C       1      m1     0.0008
   4417 H           11.1518    -3.4461    12.5432 H       1      m1     0.0192
   4418 C           11.0375    -2.4120    13.1221 C       1      m1    -0.0179
   4419 H           11.1941    -6.2021    11.9661 H      30     m30     0.0189
   4420 C           11.9861    -5.8606    12.5016 C      30     m30    -0.0243
   4421 H           13.0682    -5.8815    10.7910 H      30     m30     0.0185
   4422 C           13.0549    -5.6228    11.7999 C      30     m30    -0.0163
   4423 H           14.2146    -2.3810    13.1340 H       1      m1     0.0210
   4424 C           14.4147    -5.5510    12.2604 C      30     m30     0.0010
   4425 C           15.7804    -6.0459    11.6560 C      30     m30    -0.0162
   4426 C           17.0005    -5.4179    12.2805 C      30     m30    -0.0115
   4427 H           18.0526    -5.0784    12.0775 H      30     m30     0.0134
   4428 H          -17.1614     0.7988    10.2737 H       1      m1     0.0160
   4429 H          -17.1670    -1.9564    13.4368 H       1      m1     0.0128
   4430 H          -16.5018     1.4972    12.1142 H       1      m1     0.0181
   4431 C          -16.0584     0.9969    10.4571 C       1      m1    -0.0093
   4432 C          -15.6395     1.4287    11.5823 C       1      m1    -0.0222
   4433 C          -14.3553     2.0299    11.6542 C       1      m1     0.0066
   4434 C          -14.1679     1.4086     9.2498 C       1      m1     0.0065
   4435 C          -12.9578    -1.4650    11.3549 C      11     m11     0.0062
   4436 C          -12.8356    -1.0387    12.9075 C      11     m11    -0.0209
   4437 C          -11.7721    -1.2337    10.5660 C      11     m11     0.0012
   4438 C          -11.2123    -2.0741     9.5114 C      11     m11    -0.0019
   4439 C          -11.3997    -0.9811    13.4814 C      11     m11     0.0013
   4440 C          -10.7029    -0.2216    10.9861 C      11     m11     0.0039
   4441 C          -10.5769    -0.2344    12.3730 C      11     m11    -0.0209
   4442 H           -9.6876     0.1943    12.7977 H      11     m11     0.0180
   4443 C           -9.5145    -0.3126    10.0199 C      11     m11    -0.0201
   4444 H           -9.0860     1.6946    11.2619 H       1      m1     0.0191
   4445 H           -8.7534    -0.1216    10.6051 H      11     m11     0.0186
   4446 C           -8.3200     2.1791    13.2043 C       1      m1    -0.0145
   4447 H           -7.3042     1.3623    12.4471 H       1      m1     0.0136
   4448 H           -5.7261     1.3227    11.1878 H       1      m1     0.0145
   4449 C           -5.2676     1.8169    10.2117 C       1      m1    -0.0138
   4450 C           -4.4355     0.7371     9.6609 C       1      m1     0.0028
   4451 H           -4.6432    -0.6608    11.0891 H       1      m1     0.0180
   4452 C           -4.1276    -0.4774    10.1055 C       1      m1    -0.0142
   4453 C           -3.8288     1.8805    13.0814 C       1      m1     0.0054
   4454 C           -3.0433    -1.4427     9.8288 C       1      m1    -0.0137
   4455 C           -2.3539     1.7738    12.7680 C       1      m1    -0.0000
   4456 C           -1.7810     0.7267    13.2344 C       1      m1    -0.0002
   4457 C           -0.3476     0.5008    12.7429 C       1      m1     0.0024
   4458 C           -0.0298     1.3741    11.4489 C       1      m1    -0.0008
   4459 C            0.0379    -0.7703    13.0960 C       1      m1    -0.0161
   4460 H            0.9549    -0.9276    11.0389 H       1      m1     0.0173
   4461 H            0.7084    -1.5371    12.5107 H       1      m1     0.0133
   4462 C            1.0927     0.9854    10.6097 C       1      m1     0.0045
   4463 C            1.7922    -0.2429    10.6156 C       1      m1    -0.0169
   4464 C            2.8914    -0.9080     9.9372 C       1      m1    -0.0011
   4465 C            2.9391     1.6603     9.5170 C       1      m1     0.0019
   4466 C            3.6323     0.2904     9.5363 C       1      m1    -0.0032
   4467 H            5.1305    -2.2485    10.5249 H       1      m1     0.0192
   4468 H            5.2485     1.8378    10.1659 H      10     m10     0.0231
   4469 C            5.9372     1.7592    13.0629 C      10     m10    -0.0025
   4470 C            6.5538    -0.7979    12.8958 C      10     m10    -0.0067
   4471 H            6.6424    -2.0982    12.8926 H      10     m10     0.0145
   4472 H            7.8973     1.1649    10.6403 H      10     m10     0.0181
   4473 C            7.2904     1.4370    12.7253 C      10     m10    -0.0005
   4474 C            7.1484     1.8458    11.2639 C      10     m10    -0.0060
   4475 C            7.4978    -0.0195    12.5079 C      10     m10    -0.0227
   4476 H            8.3003    -0.2246    11.9065 H      10     m10     0.0193
   4477 C            9.9059     1.4047    13.3917 C       1      m1    -0.0182
   4478 C           10.3151     0.0092    13.0230 C       1      m1     0.0023
   4479 C           10.4906     2.1899    10.0355 C       1      m1    -0.0027
   4480 C           10.9799     2.1375    12.7016 C       1      m1     0.0011
   4481 C           11.2494     0.7949     9.6424 C       1      m1    -0.0004
   4482 C           11.2632    -0.5902    11.9697 C       1      m1    -0.0044
   4483 C           11.9545    -1.6632    12.6067 C       1      m1     0.0083
   4484 C           11.8056     0.2816    10.8725 C       1      m1    -0.0035
   4485 C           12.3672     2.0488    13.3997 C       1      m1    -0.0173
   4486 H           12.7162     1.9929    12.3302 H       1      m1     0.0238
   4487 C           13.0006    -0.5988    10.6530 C       1      m1     0.0012
   4488 C           13.2763    -1.9841    12.5093 C       1      m1    -0.0202
   4489 C           13.5279    -1.0168     9.1621 C       1      m1    -0.0151
   4490 C           13.8102    -1.3162    11.4567 C       1      m1    -0.0028
   4491 H           14.3778    -1.9189     9.3351 H       1      m1     0.0147
   4492 H           14.3817    -0.1370    13.8801 H       1      m1     0.0204
   4493 C           15.2634    -0.9968    12.0003 C       1      m1     0.0016
   4494 C           15.3739    -0.3094    13.2483 C       1      m1    -0.0169
   4495 H           16.2551    -1.3069    10.0000 H       1      m1     0.0122
   4496 C           16.3863    -1.4621    11.1469 C       1      m1    -0.0162
   4497 C           17.7099    -1.5959    11.8212 C       1      m1    -0.0224
   4498 C           17.6506    -1.4485    13.2216 C       1      m1     0.0039
   4499 H           17.5248     0.8759    10.4174 H       1      m1     0.0151
   4500 C           17.8755     2.0522    10.1913 C       1      m1    -0.0159
   4501 H          -18.3817    -2.0320    11.3260 H       1      m1     0.0170
   4502 C          -18.3177     5.7303    11.0632 C       1      m1    -0.0309
   4503 H           18.3682     5.5589    12.1812 H       1      m1     0.0232
   4504 C          -18.0051     3.4835    13.1457 C       1      m1    -0.0211
   4505 H          -17.0762     2.9812    12.8047 H       1      m1     0.0180
   4506 H          -17.2992     5.8690    10.5236 H       1      m1     0.0233
   4507 C          -13.9290     2.4042    10.3824 C       1      m1     0.0001
   4508 C          -13.8322     2.8445    12.8300 C       1      m1    -0.0184
   4509 C          -12.9265     3.7207    12.6302 C       1      m1    -0.0169
   4510 C          -12.9144     3.4015    10.1521 C       1      m1    -0.0025
   4511 H          -12.8174     4.1886    13.6008 H       1      m1     0.0139
   4512 C          -12.0934     3.6294    11.2632 C       1      m1     0.0055
   4513 C          -10.6862     3.2851    11.2740 C       1      m1    -0.0197
   4514 H           -9.9917     3.0370    12.1807 H       1      m1     0.0220
   4515 C          -10.0613     3.9565    10.1004 C       1      m1     0.0028
   4516 C           -8.5908     4.3301    10.0979 C       1      m1    -0.0074
   4517 C           -8.2584     2.2951    11.7240 C       1      m1    -0.0282
   4518 C           -8.0740     3.7950    11.3374 C       1      m1     0.0016
   4519 C           -7.8800     4.7958    12.3592 C       1      m1    -0.0028
   4520 C           -7.4960     5.4564     9.8194 C       1      m1    -0.0175
   4521 C           -7.3929     5.9614    11.9985 C       1      m1    -0.0054
   4522 C           -6.9719     6.3948    10.5605 C       1      m1    -0.0010
   4523 H           -5.7341     4.0647    10.6819 H       1      m1     0.0180
   4524 H           -5.6496     2.8968    12.7309 H       1      m1     0.0180
   4525 H           -5.0102     4.8993    12.1998 H       1      m1     0.0156
   4526 C           -5.2824     3.2645     9.9206 C       1      m1    -0.0148
   4527 C           -4.6409     3.0787    13.1292 C       1      m1    -0.0196
   4528 C           -4.1243     4.0836    12.2209 C       1      m1    -0.0106
   4529 C           -3.0207     4.0001    11.5062 C       1      m1    -0.0170
   4530 H           -2.4679     4.6237    10.8135 H       1      m1     0.0175
   4531 C           -1.8486     2.9046    11.8114 C       1      m1     0.0058
   4532 C           -0.7678     2.7844    11.1573 C       1      m1    -0.0231
   4533 H           -0.4205     3.4075    10.4197 H       1      m1     0.0192
   4534 H            1.8504     3.1762    10.6384 H       1      m1     0.0199
   4535 C            1.9332     2.1992    10.3012 C       1      m1    -0.0226
   4536 H            2.3579     4.2901    13.8675 H      10     m10     0.0145
   4537 C            3.0858     4.2319    12.9957 C      10     m10    -0.0157
   4538 H            3.0955     6.3058    11.8380 H      10     m10     0.0153
   4539 C            3.5750     5.3470    12.1597 C      10     m10    -0.0158
   4540 C            3.5687     2.8125    13.4261 C      10     m10    -0.0002
   4541 C            4.4882     4.6275    11.2765 C      10     m10    -0.0208
   4542 H            4.8193     4.9383    10.4287 H      10     m10     0.0168
   4543 C            4.8202     2.7309    12.5657 C      10     m10     0.0012
   4544 C            5.0802     3.3526    11.3750 C      10     m10    -0.0012
   4545 C            6.1709     2.4832    10.4164 C      10     m10    -0.0322
   4546 H            6.4152     3.1580     9.5595 H      10     m10     0.0218
   4547 C            8.1216     6.6777    11.7811 C       1      m1    -0.0190
   4548 C            9.0679     5.7449    12.4388 C       1      m1     0.0046
   4549 C            9.0193     4.8540    13.6932 C       1      m1    -0.0217
   4550 H            9.0643     4.9891     9.5025 H       1      m1     0.0204
   4551 C           10.2553     5.3680    11.6504 C       1      m1    -0.0030
   4552 C           10.3977     2.6019    11.3466 C       1      m1    -0.0014
   4553 C           10.9359     4.0845    11.4069 C       1      m1    -0.0022
   4554 C           10.8920     6.3965    10.7249 C       1      m1     0.0001
   4555 C           12.0488     4.5062    10.6974 C       1      m1     0.0013
   4556 C           11.7658     6.0434     9.8658 C       1      m1    -0.0065
   4557 C           12.8618     6.2669    13.3893 C       1      m1    -0.0014
   4558 C           13.2939     4.1184    10.8135 C       1      m1    -0.0161
   4559 C           13.8786     3.6315    12.0413 C       1      m1    -0.0162
   4560 H           14.1389     4.8354    10.3110 H       1      m1     0.0165
   4561 H           13.8542     4.4260    12.8074 H       1      m1     0.0228
   4562 C           14.3191     6.3929    13.4131 C       1      m1    -0.0071
   4563 C           14.9982     2.9655    11.6744 C       1      m1    -0.0166
   4564 H           15.1238     2.3844    10.7237 H       1      m1     0.0190
   4565 C           16.1301     3.4299    12.5414 C       1      m1     0.0006
   4566 C           16.2755     6.4474    10.3678 C       1      m1    -0.0155
   4567 C           16.0202     4.4194    13.6820 C       1      m1    -0.0047
   4568 H           15.7029     5.5593    10.2579 H       1      m1     0.0174
   4569 C           17.6328     3.3679    12.3515 C       1      m1     0.0009
   4570 C           17.6113     3.2951    10.8170 C       1      m1    -0.0013
   4571 C           18.3835     4.3820    10.1732 C       1      m1    -0.0003
   4572 C          -16.6128    10.8467    12.7110 C       1      m1     0.0034
   4573 C          -16.4943    10.8676     9.6954 C       1      m1    -0.0248
   4574 C          -15.8829     9.8230    10.4496 C       1      m1     0.0053
   4575 C          -15.6991    10.0912    11.9437 C       1      m1    -0.0005
   4576 C          -15.0899     8.8867     9.8059 C       1      m1    -0.0145
   4577 C          -14.9932     9.2509    12.6351 C       1      m1    -0.0015
   4578 C          -14.1457     8.0824    10.4407 C       1      m1    -0.0172
   4579 C          -14.0017     8.4320    11.7438 C       1      m1     0.0064
   4580 H          -13.2792     7.3623    10.4077 H       1      m1     0.0175
   4581 C          -12.8562     7.6858    12.2542 C       1      m1    -0.0197
   4582 H          -12.0835     7.1879    11.6781 H       1      m1     0.0176
   4583 C          -10.7551    10.2705    12.2132 C       1      m1     0.0033
   4584 C          -10.5022     9.9558     9.6963 C       1      m1     0.0089
   4585 C          -10.6725    10.9272    10.7769 C       1      m1     0.0007
   4586 H           -9.7688     8.8320    13.5174 H       1      m1     0.0113
   4587 C           -9.9612     9.0293    12.2317 C       1      m1    -0.0156
   4588 C          -10.0710     8.7996     9.7634 C       1      m1    -0.0216
   4589 C           -9.5683     8.3081    11.0784 C       1      m1    -0.0094
   4590 H           -9.0768     7.2284    11.3066 H       1      m1     0.0192
   4591 H           -8.0106     8.4642    13.1138 H       1      m1     0.0180
   4592 H           -6.9810     9.7286    10.6023 H       1      m1     0.0222
   4593 C           -7.2066     6.9072    12.8827 C       1      m1     0.0027
   4594 C           -6.7519     8.8129    11.1936 C       1      m1    -0.0131
   4595 C           -6.9276     8.3493    12.6706 C       1      m1    -0.0348
   4596 C           -6.3068     7.7095    10.2766 C       1      m1    -0.0011
   4597 H           -6.3216     8.7062    13.3227 H       1      m1     0.0202
   4598 H           -4.4252     9.4033    12.6729 H       1      m1     0.0181
   4599 C           -4.0598    10.4695    10.4062 C       1      m1    -0.0013
   4600 C           -3.4879     9.0895    12.2377 C       1      m1    -0.0154
   4601 C           -3.0258     9.6861    11.0266 C       1      m1    -0.0017
   4602 C           -2.5790     8.3728    13.0962 C       1      m1    -0.0236
   4603 C           -1.6462     9.5841    10.5109 C       1      m1     0.0016
   4604 C           -1.0953     8.2810    12.4020 C       1      m1     0.0030
   4605 C           -1.4362     9.9649     9.1888 C       1      m1    -0.0152
   4606 C           -0.8817     8.7270    11.1490 C       1      m1     0.0002
   4607 C           -0.0450     7.9748    13.1537 C       1      m1    -0.0199
   4608 H            0.5975     7.5003    10.4550 H       1      m1     0.0185
   4609 C            0.5684     8.5172    10.7488 C       1      m1    -0.0155
   4610 C            1.1179     9.2956     9.5203 C       1      m1     0.0069
   4611 C            1.3644     8.2684    13.0304 C       1      m1    -0.0175
   4612 C            1.8416     8.5153    11.7286 C       1      m1     0.0040
   4613 H            1.9043     7.8957    13.9642 H       1      m1     0.0126
   4614 C            2.4287     9.5567     9.1888 C       1      m1    -0.0197
   4615 C            3.0889     9.0952    11.6083 C       1      m1    -0.0153
   4616 C            3.3384     9.5753    10.2314 C       1      m1    -0.0139
   4617 H            3.5435     9.1664    12.9162 H       1      m1     0.0139
   4618 H            4.2790     9.9030     9.9235 H       1      m1     0.0179
   4619 H            6.7237    10.5536    10.0875 H       1      m1     0.0116
   4620 H            7.2268     6.8704    12.4396 H       1      m1     0.0180
   4621 H            7.8105     9.1463    12.5803 H       1      m1     0.0157
   4622 H            7.9230     8.4030    10.4388 H       1      m1     0.0108
   4623 C            8.2202     9.3454    13.6178 C       1      m1    -0.0208
   4624 C            8.7149     7.6920    10.8860 C       1      m1    -0.0129
   4625 C            9.6133     9.1350    13.6094 C       1      m1     0.0055
   4626 H           10.5035     8.5607    10.1630 H       1      m1     0.0142
   4627 C            9.9679     7.6330    10.4916 C       1      m1    -0.0179
   4628 H           10.4381     9.8468    11.6695 H       1      m1     0.0203
   4629 C           10.8136     9.5455    12.5765 C       1      m1    -0.0361
   4630 H           11.5748    10.3109    13.0431 H       1      m1     0.0172
   4631 C           11.3252     8.1131    12.3518 C       1      m1    -0.0084
   4632 C           11.7403     7.1993    13.5279 C       1      m1    -0.0004
   4633 H           11.7721     8.2184    11.1982 H       1      m1     0.0179
   4634 H           13.2223    10.0809    13.0350 H       1      m1     0.0146
   4635 C           13.4425    10.4385    11.8722 C       1      m1    -0.0156
   4636 C           14.3960     9.5209    11.2770 C       1      m1    -0.0158
   4637 C           14.7032     9.4531    10.0008 C       1      m1     0.0019
   4638 H           14.7919     8.6609    11.7755 H       1      m1     0.0212
   4639 C           15.2834     7.1569     9.8482 C       1      m1    -0.0041
   4640 C           15.6991     8.5957     9.5691 C       1      m1     0.0037
   4641 C           17.0800     8.6625     9.1706 C       1      m1    -0.0194
   4642 H           17.7027    10.8864    12.7332 H       1      m1     0.0178
   4643 C           17.5339     7.0066    10.9551 C       1      m1    -0.0096
   4644 H           17.5024     7.4453    12.0229 H       1      m1     0.0178
   4645 C           18.0115     7.5037     9.5208 C       1      m1     0.0046
   4646 H          -17.9120    12.4493    12.5062 H       1      m1     0.0191
   4647 C          -17.5014    11.6278    12.0343 C       1      m1    -0.0273
   4648 C          -17.3347    11.6128    10.5874 C       1      m1     0.0070
   4649 H          -16.5074    14.3395    11.0723 H       1      m1     0.0191
   4650 C          -15.6329    14.9078    10.8048 C       1      m1    -0.0155
   4651 H          -13.7099    13.7280    10.7220 H       1      m1     0.0218
   4652 C          -14.4383    14.5264    10.6820 C       1      m1    -0.0172
   4653 H          -11.3577    15.5840    11.5924 H       1      m1     0.0160
   4654 C          -11.3120    14.5658     9.7638 C       1      m1     0.0078
   4655 C          -11.1059    14.4959    11.1625 C       1      m1    -0.0258
   4656 C          -10.9252    13.0921    11.3778 C       1      m1     0.0074
   4657 C          -10.7682    12.6817    12.7034 C       1      m1    -0.0169
   4658 H          -10.6383    13.2389    13.6731 H       1      m1     0.0161
   4659 C          -10.5146    12.2575    10.4147 C       1      m1    -0.0038
   4660 C          -10.3928    11.3847    13.0753 C       1      m1    -0.0174
   4661 H           -7.7262    14.0502     9.2925 H       1      m1     0.0182
   4662 C           -7.1775    13.1480     8.9970 C       1      m1    -0.0151
   4663 H           -7.0432    12.7606    12.0209 H       1      m1     0.0211
   4664 C           -7.1666    13.7636    12.4246 C       1      m1    -0.0168
   4665 C           -6.2073    14.6369    11.8321 C       1      m1    -0.0004
   4666 C           -5.9758    12.3529     9.6100 C       1      m1    -0.0020
   4667 H           -5.5470    15.0503    10.2399 H       1      m1     0.0188
   4668 C           -5.0481    14.2072    10.8676 C       1      m1    -0.0180
   4669 C           -5.0850    12.6369    10.5824 C       1      m1     0.0006
   4670 C           -4.1823    11.7417    11.0664 C       1      m1    -0.0179
   4671 C           -4.0368    15.2156    11.3494 C       1      m1    -0.0058
   4672 H           -3.4060    12.2582    11.8996 H       1      m1     0.0159
   4673 C           -2.8131    15.3332    12.2571 C       1      m1     0.0025
   4674 H           -2.2484    13.4433    11.3874 H       1      m1     0.0162
   4675 C           -1.8552    14.3626    11.9698 C       1      m1    -0.0245
   4676 C           -0.6078    14.9801    11.9817 C       1      m1     0.0033
   4677 H           -0.0583    13.6233    10.5201 H       1      m1     0.0177
   4678 C            0.3936    14.3789    11.1277 C       1      m1    -0.0193
   4679 C            1.6264    14.9732    10.9430 C       1      m1    -0.0165
   4680 H            2.3275    14.3322    10.2629 H       1      m1     0.0186
   4681 H            2.9602    13.3964    13.5993 H       4      m4     0.0191
   4682 C            5.2818    13.9915     9.3256 C       1      m1    -0.0027
   4683 C            6.2186    11.5300     9.8203 C       1      m1    -0.0114
   4684 C            6.6037    14.1582    10.1315 C       1      m1     0.0002
   4685 C            7.1831    12.7773     9.8235 C       1      m1    -0.0216
   4686 C            7.2926    15.3869     9.9462 C       1      m1    -0.0198
   4687 H            8.1982    12.6597    10.0479 H       1      m1     0.0158
   4688 H           10.4068    13.3067    11.0527 H       1      m1     0.0117
   4689 C           10.8538    12.4640     9.1372 C       1      m1     0.0013
   4690 C           11.1707    12.7745    10.4685 C       1      m1    -0.0173
   4691 C           12.1285    12.3879    11.3314 C       1      m1    -0.0229
   4692 H           12.0378    12.6714    12.2797 H       1      m1     0.0161
   4693 C           12.8919    11.4279    10.9443 C       1      m1     0.0082
   4694 C           13.0335    11.2538     9.5103 C       1      m1    -0.0013
   4695 H           14.8114    14.2292    13.4096 H       1      m1     0.0157
   4696 C           15.4100    13.5539    12.7622 C       1      m1    -0.0160
   4697 C           15.6282    14.0858    11.3899 C       1      m1    -0.0015
   4698 C           15.5911    15.5296    10.7259 C       1      m1     0.0048
   4699 C           16.2626    13.2848    10.4909 C       1      m1     0.0006
   4700 C           16.5681    13.6310     8.9916 C       1      m1     0.0002
   4701 C           16.3021    12.5571    13.3173 C       1      m1    -0.0173
   4702 C           16.8520    11.6421    12.3908 C       1      m1    -0.0141
   4703 C           16.9703    12.2530    11.0037 C       1      m1     0.0019
   4704 C           18.1490    11.7805    10.1686 C       1      m1    -0.0010
   4705 C           18.3695    17.5485    10.4352 C       1      m1     0.0048
   4706 H          -17.6640    16.5609    11.8773 H       1      m1     0.0153
   4707 C          -17.9419    18.2364     9.3412 C       1      m1    -0.0268
   4708 H          -18.0103    17.7408    12.9302 H       1      m1     0.0166
   4709 C          -17.5187    16.7030    10.7999 C       1      m1    -0.0186
   4710 C          -16.4140    16.2791    10.5059 C       1      m1     0.0019
   4711 C          -15.7310    16.9694     9.5403 C       1      m1    -0.0018
   4712 H          -13.7227    19.3402    12.2804 H       1      m1     0.0192
   4713 C          -14.3868    16.6617     9.1724 C       1      m1    -0.0022
   4714 C          -13.7135    15.6233     9.9154 C       1      m1    -0.0002
   4715 H          -13.2760    16.7549    13.2713 H       1      m1     0.0141
   4716 C          -12.1611    15.7693     9.6694 C       1      m1    -0.0053
   4717 H          -10.5169    16.9496     8.3320 H       1      m1     0.0174
   4718 H           -9.0714    18.3280    11.4173 H       1      m1     0.0145
   4719 H           -9.0273    15.4591    11.7206 H       1      m1     0.0179
   4720 C           -8.3240    17.8613    12.0870 C       1      m1    -0.0165
   4721 C           -8.3610    16.2581    12.2329 C       1      m1    -0.0117
   4722 H           -7.5157    19.6950    13.1910 H       1      m1     0.0163
   4723 C           -7.2611    18.6764    12.8543 C       1      m1    -0.0194
   4724 C           -6.6748    15.9735    12.0597 C       1      m1     0.0015
   4725 C           -6.0903    18.4331    12.1300 C       1      m1     0.0059
   4726 C           -5.7721    17.0107    11.9592 C       1      m1    -0.0024
   4727 C           -5.5392    19.3598    11.1484 C       1      m1    -0.0238
   4728 H           -5.0628    19.0807     8.9056 H       1      m1     0.0127
   4729 C           -4.7711    18.8935     9.9602 C       1      m1    -0.0185
   4730 C           -4.3988    16.6282    11.2281 C       1      m1    -0.0020
   4731 C           -4.2673    17.5745    10.1312 C       1      m1    -0.0204
   4732 H           -3.3596    17.5447     9.5804 H       1      m1     0.0180
   4733 H           -2.8435    17.7483    12.5991 H       1      m1     0.0196
   4734 H           -2.7144    19.0775    11.2392 H       1      m1     0.0153
   4735 C           -2.2944    16.7746    12.4611 C       1      m1    -0.0185
   4736 C           -1.5278    19.1281    11.4389 C       1      m1    -0.0140
   4737 C           -1.0806    17.3520    13.1295 C       1      m1    -0.0008
   4738 C           -0.6681    18.8082    13.1885 C       1      m1    -0.0170
   4739 H           -0.1792    17.6272    10.6362 H       1      m1     0.0200
   4740 C           -0.6089    18.7506    10.6146 C       1      m1    -0.0069
   4741 C           -0.1677    16.4800    12.4962 C       1      m1    -0.0039
   4742 C            0.7420    19.2203    13.4256 C       1      m1    -0.0197
   4743 C            0.5499    19.4530    10.6080 C       1      m1    -0.0127
   4744 H            0.9156   -19.8065    14.1539 H       1      m1     0.0171
   4745 C            1.1888    16.9854    12.1750 C       1      m1    -0.0048
   4746 H            1.7060    19.1549    10.7477 H       1      m1     0.0201
   4747 C            1.5612    18.3711    12.8097 C       1      m1     0.0060
   4748 C            2.1252    16.1188    11.5690 C       1      m1     0.0045
   4749 C            3.0788    18.5928    12.7461 C       1      m1    -0.0198
   4750 C            3.3235    16.6615    11.0920 C       1      m1    -0.0160
   4751 C            3.6568    17.8607    11.7213 C       1      m1    -0.0118
   4752 H            3.5888    19.4165    13.3786 H       1      m1     0.0163
   4753 H            3.9027    15.9294    10.2430 H       1      m1     0.0189
   4754 H            4.6577    18.2891    11.6039 H       1      m1     0.0170
   4755 H            5.3096    18.9561     9.7459 H       1      m1     0.0192
   4756 C            6.3044    19.0434     9.9496 C       1      m1    -0.0282
   4757 C            6.6485    16.5648     9.1951 C       1      m1    -0.0027
   4758 C            7.0656    17.9252     9.5061 C       1      m1     0.0059
   4759 H            8.1874    15.4932    10.7298 H       1      m1     0.0113
   4760 C            8.5509    17.6155     9.5242 C       1      m1    -0.0232
   4761 H            8.8632    16.6375     9.6652 H       1      m1     0.0187
   4762 C            9.2072    18.9587     9.6125 C       1      m1     0.0087
   4763 C           10.4914    18.6870    10.1232 C       1      m1    -0.0261
   4764 H           10.9435    17.8354    10.0974 H       1      m1     0.0201
   4765 C           11.4069    19.6822    10.6217 C       1      m1    -0.0024
   4766 C           12.4824    19.5339    11.5423 C       1      m1    -0.0050
   4767 H           13.5114    19.3409    13.8224 H       1      m1     0.0166
   4768 C           13.3947    19.3492    12.5936 C       1      m1    -0.0206
   4769 C           14.9662    19.5251    12.3427 C       1      m1     0.0043
   4770 C           15.2597    15.8162     9.4051 C       1      m1    -0.0223
   4771 H           15.1910    16.6391    12.4414 H       1      m1     0.0187
   4772 C           15.7611    18.7466    13.4023 C       1      m1    -0.0064
   4773 C           16.0699    16.4284    11.7155 C       1      m1    -0.0185
   4774 C           16.9453    18.0382    12.9441 C       1      m1    -0.0015
   4775 C           16.9778    17.3862    11.2686 C       1      m1    -0.0011
   4776 C           18.0995    18.5595    13.4499 C       1      m1    -0.0131
   4777 C          -17.5856   -19.5658    14.0182 C       1      m1     0.0010
   4778 C          -17.1121   -18.1599    13.8105 C       1      m1    -0.0219
   4779 H          -17.1433   -15.8773    15.5830 H       1      m1     0.0129
   4780 C          -16.2547   -17.9864    15.0862 C       1      m1     0.0042
   4781 H          -16.1228   -18.5514    17.7143 H       1      m1     0.0191
   4782 C          -16.2006   -16.6104    15.5684 C       1      m1    -0.0179
   4783 C          -14.9489   -18.6815    15.0888 C       1      m1    -0.0051
   4784 C          -14.9118   -19.6062    14.1307 C       1      m1     0.0042
   4785 C          -14.9746   -16.2278    16.3021 C       1      m1    -0.0219
   4786 C          -14.0390   -17.9059    14.7951 C       1      m1    -0.0010
   4787 C          -13.8528   -16.6565    15.3893 C       1      m1     0.0054
   4788 C          -13.1376   -18.0000    13.6261 C       1      m1     0.0056
   4789 C          -12.5640   -16.0555    15.6320 C       1      m1    -0.0147
   4790 C          -11.7089   -16.0206    14.6451 C       1      m1    -0.0131
   4791 C           -8.0730   -16.3257    17.7047 C       4      m4     0.0009
   4792 C           -8.0423   -16.4377    14.8180 C       4      m4    -0.0139
   4793 C           -7.9512   -17.7058    16.9050 C       4      m4     0.0001
   4794 C           -7.7550   -18.8167    17.9335 C       4      m4     0.0014
   4795 C           -7.6050   -17.6051    15.4883 C       4      m4     0.0037
   4796 C           -6.7349   -19.6931    17.3125 C       4      m4    -0.0179
   4797 C           -6.6037   -18.3779    14.8063 C       4      m4    -0.0185
   4798 C           -6.0699   -19.1249    16.0646 C       4      m4     0.0064
   4799 H           -6.7388   -17.9717    13.5946 H       4      m4     0.0112
   4800 C           -2.3834   -15.8415    17.6780 C       1      m1     0.0012
   4801 C           -2.4352   -17.4120    17.7653 C       1      m1    -0.0038
   4802 C           -1.4301   -18.0839    16.7959 C       1      m1    -0.0003
   4803 C           -1.1585   -15.6889    15.6512 C       1      m1    -0.0024
   4804 C           -0.9634   -19.1571    17.5920 C       1      m1     0.0039
   4805 C           -0.8480   -15.9997    14.1929 C       1      m1     0.0004
   4806 C           -0.7174   -16.8592    16.3537 C       1      m1    -0.0012
   4807 H           -0.5258   -15.9038    18.1998 H      13     m13     0.0217
   4808 C            0.4735   -19.5774    17.2766 C       1      m1    -0.0188
   4809 C            0.7743   -17.1800    16.2671 C       1      m1    -0.0159
   4810 C            1.1390   -18.5963    16.4359 C       1      m1    -0.0168
   4811 H            1.4827   -16.4677    15.6903 H       1      m1     0.0171
   4812 H            1.7870   -18.7156    15.7511 H       1      m1     0.0184
   4813 C            3.3312   -16.2291    17.8034 C       1      m1     0.0065
   4814 H            4.1541   -16.6804    15.9142 H       1      m1     0.0171
   4815 C            3.7977   -17.2760    16.7298 C       1      m1    -0.0236
   4816 C            4.4835   -18.4281    17.5080 C       1      m1     0.0077
   4817 C            5.1183   -19.5899    16.6900 C       1      m1    -0.0013
   4818 H            5.6061   -16.2151    15.4389 H       1      m1     0.0175
   4819 C            6.2622   -19.8349    16.1460 C       1      m1    -0.0022
   4820 C            6.4275   -15.7394    15.7088 C       1      m1    -0.0171
   4821 C            6.9135   -17.8430    17.2523 C       1      m1    -0.0026
   4822 C            7.1829   -16.3119    16.8595 C       1      m1    -0.0094
   4823 C            7.2813   -18.8483    16.3658 C       1      m1    -0.0039
   4824 H            8.1830   -16.5499    16.3471 H       1      m1     0.0168
   4825 C            8.6470   -19.1444    15.7446 C       1      m1    -0.0269
   4826 H            9.0394   -18.0376    15.5579 H       1      m1     0.0157
   4827 H            9.3308    19.8530    16.3748 H       1      m1     0.0158
   4828 H           13.8605   -18.5845    17.8080 H       1      m1     0.0155
   4829 H           15.2022   -19.5607    18.0257 H       1      m1     0.0153
   4830 C           15.5852   -19.5969    16.9273 C       1      m1    -0.0170
   4831 C           16.1798   -17.4839    17.7282 C       1      m1    -0.0037
   4832 H           16.3321   -17.4786    14.3715 H       1      m1     0.0132
   4833 C           16.3357   -18.4987    16.6587 C       1      m1     0.0054
   4834 C           16.6157   -19.3249    14.5379 C       1      m1    -0.0008
   4835 C           16.9480   -18.0494    15.2342 C       1      m1    -0.0307
   4836 C           17.4140   -16.6965    17.9429 C       1      m1    -0.0181
   4837 H           17.9436   -17.6666    14.7929 H       1      m1     0.0166
   4838 H           18.3376   -17.0992    17.5445 H       1      m1     0.0197
   4839 C          -18.1144   -13.1653    17.4539 C       1      m1    -0.0024
   4840 H          -18.3670   -13.2173    15.6652 H       1      m1     0.0232
   4841 C          -16.7470   -13.1082    17.5529 C       1      m1    -0.0200
   4842 H          -16.3188   -13.9430    17.1446 H       1      m1     0.0150
   4843 C          -16.2286   -11.5859    17.7674 C       1      m1    -0.0221
   4844 H          -15.4940   -13.2658    15.5840 H       8      m8     0.0114
   4845 C          -15.3492   -13.2378    14.4102 C       8      m8    -0.0157
   4846 H          -15.3347   -11.1500    17.3218 H       1      m1     0.0158
   4847 H          -15.0703   -15.2590    16.4549 H       1      m1     0.0168
   4848 C          -14.0854   -12.6665    14.2532 C       8      m8    -0.0144
   4849 H          -13.9310   -12.7372    15.4865 H       8      m8     0.0129
   4850 H          -12.4411   -15.0417    16.2981 H       1      m1     0.0154
   4851 H          -11.3498   -11.5129    13.6496 H       8      m8     0.0176
   4852 H          -11.0097   -15.2124    14.7652 H       1      m1     0.0177
   4853 C           -9.6500   -11.8233    16.9441 C       4      m4    -0.0026
   4854 C           -9.3942   -13.1923    17.2125 C       4      m4     0.0011
   4855 C           -8.2967   -15.1704    15.3264 C       4      m4    -0.0187
   4856 C           -8.3622   -15.0926    16.8322 C       4      m4     0.0048
   4857 H           -8.3073   -14.1674    14.8416 H       4      m4     0.0150
   4858 C           -8.0572   -13.7788    17.3042 C       4      m4    -0.0225
   4859 H           -7.8822   -11.1519    15.8531 H       4      m4     0.0165
   4860 H           -2.6579   -10.4010    14.7693 H      11     m11     0.0156
   4861 C           -2.8340   -11.0562    16.9184 C      11     m11    -0.0126
   4862 H           -2.9404   -14.3558    15.9430 H       1      m1     0.0135
   4863 H           -2.6460   -12.0728    16.5218 H      11     m11     0.0123
   4864 C           -2.2695   -15.1740    16.3535 C       1      m1    -0.0229
   4865 H           -0.9559   -13.7492    13.5147 H       1      m1     0.0199
   4866 H           -0.4897   -13.3467    17.7889 H      13     m13     0.0171
   4867 C            0.8039   -11.1762    14.6884 C      31     m31    -0.0039
   4868 C            1.9221   -12.0346    15.2176 C      31     m31    -0.0164
   4869 H            1.6795   -12.4007    16.2044 H      31     m31     0.0130
   4870 H            2.8230   -14.0444    16.7493 H       1      m1     0.0175
   4871 C            3.2199   -14.7874    17.4134 C       1      m1    -0.0170
   4872 C            3.2369   -12.3369    14.8115 C      31     m31    -0.0200
   4873 H            4.1595   -12.0801    15.3707 H      31     m31     0.0171
   4874 H            6.7670   -14.2444    14.2029 H       1      m1     0.0152
   4875 C            6.9653   -14.5939    15.2085 C       1      m1    -0.0189
   4876 C            7.4332   -15.3563    17.9755 C       1      m1    -0.0004
   4877 C            7.8026   -13.6028    16.0918 C       1      m1     0.0028
   4878 C            7.5795   -13.9820    17.5373 C       1      m1    -0.0006
   4879 H            8.3905   -11.3856    15.1712 H       1      m1     0.0153
   4880 C            8.1882   -12.2395    15.9445 C       1      m1    -0.0214
   4881 C            8.5363   -11.6265    17.2641 C       1      m1     0.0010
   4882 C            9.8743   -11.1310    17.3659 C       1      m1    -0.0001
   4883 H           10.9454   -13.3816    17.2251 H       1      m1     0.0203
   4884 C           10.7391   -12.2866    16.7475 C       1      m1    -0.0152
   4885 C           11.7034   -12.1823    15.6672 C       1      m1    -0.0004
   4886 C           12.6556   -12.9226    14.6639 C       1      m1    -0.0228
   4887 H           12.0825   -13.7054    14.0452 H       1      m1     0.0164
   4888 C           13.7659   -11.1417    15.4535 C       1      m1    -0.0043
   4889 C           13.8700   -12.4358    14.6635 C       1      m1     0.0083
   4890 H           14.1587   -11.1980    17.4094 H       1      m1     0.0228
   4891 C           15.2822   -11.4059    17.4423 C       1      m1    -0.0131
   4892 H           15.1787   -13.6568    13.0661 H       1      m1     0.0165
   4893 C           16.3398   -11.5799    13.9264 C       1      m1    -0.0126
   4894 C           16.4094   -12.0178    16.8210 C       1      m1     0.0015
   4895 C           16.3849   -12.4125    15.3514 C       1      m1     0.0071
   4896 H           16.4551   -15.2836    15.3619 H       1      m1     0.0199
   4897 C           17.1732   -15.3604    17.7208 C       1      m1     0.0013
   4898 C           17.4581   -14.7966    15.4800 C       1      m1    -0.0361
   4899 C           17.5881   -13.1958    15.1339 C       1      m1    -0.0208
   4900 C           17.7046   -12.1500    17.6036 C       1      m1    -0.0066
   4901 C           17.9127   -14.4740    16.9158 C       1      m1    -0.0039
   4902 H           18.1689   -15.2270    14.8481 H       1      m1     0.0153
   4903 C          -17.9591    -7.8799    16.6013 C       1      m1    -0.0205
   4904 C          -17.8224    -8.2866    13.9061 C       1      m1    -0.0019
   4905 H          -18.1119    -8.1757    17.4623 H       1      m1     0.0252
   4906 C          -16.8426    -7.3410    15.9439 C       1      m1    -0.0179
   4907 C          -16.6245    -8.1121    14.7450 C       1      m1     0.0077
   4908 H          -15.9540    -7.7167    16.4265 H       1      m1     0.0169
   4909 C          -15.4365    -8.7544    14.8020 C       1      m1    -0.0208
   4910 H          -14.6388    -8.7360    15.5736 H       1      m1     0.0169
   4911 H          -13.6103    -7.3802    17.3729 H       4      m4     0.0163
   4912 C          -12.6423    -7.8247    17.6252 C       4      m4    -0.0168
   4913 C          -12.3412    -9.2918    17.8322 C       4      m4     0.0031
   4914 C          -11.9484    -7.2129    14.3980 C       4      m4    -0.0013
   4915 C          -11.4392    -7.1894    16.9809 C       4      m4    -0.0195
   4916 C          -11.3322    -7.8882    15.6369 C       4      m4    -0.0028
   4917 C          -11.3665    -9.7765    17.0237 C       4      m4    -0.0007
   4918 C          -10.7507   -11.1123    17.5096 C       4      m4     0.0004
   4919 C          -10.5952    -9.1006    15.8155 C       4      m4    -0.0007
   4920 H          -10.5694    -6.9886    17.4637 H       4      m4     0.0247
   4921 C           -9.2796    -9.5838    15.6620 C       4      m4    -0.0156
   4922 C           -8.8307   -10.8295    16.0588 C       4      m4    -0.0194
   4923 H           -8.6202    -9.0237    14.9763 H       4      m4     0.0152
   4924 C           -5.1254    -7.3529    17.4180 C      11     m11     0.0019
   4925 C           -4.6851    -9.6393    18.0340 C      11     m11     0.0013
   4926 C           -4.3893    -6.7920    15.0768 C      11     m11    -0.0166
   4927 C           -4.4286    -8.7267    17.0220 C      11     m11     0.0007
   4928 C           -3.7453    -8.0240    14.8412 C      11     m11    -0.0175
   4929 C           -3.9493    -9.0539    15.8826 C      11     m11     0.0017
   4930 C           -3.7617   -10.7228    17.9399 C      11     m11    -0.0177
   4931 C           -3.2245   -10.3369    15.7951 C      11     m11    -0.0190
   4932 H           -3.3334    -8.5651    13.9124 H      11     m11     0.0139
   4933 H           -1.4161    -8.2496    15.1440 H      31     m31     0.0187
   4934 C           -0.9751    -9.1346    14.6993 C      31     m31    -0.0163
   4935 H           -0.2281   -11.2752    16.1002 H      31     m31     0.0127
   4936 C           -0.2922   -10.3160    15.2303 C      31     m31    -0.0114
   4937 H            9.2587    -9.0607    17.1339 H       1      m1     0.0108
   4938 C           10.5044    -9.7635    17.3810 C       1      m1    -0.0187
   4939 C           11.8228    -9.6689    16.7168 C       1      m1    -0.0024
   4940 C           12.3736   -10.8664    15.8676 C       1      m1    -0.0038
   4941 H           12.2964    -7.7216    16.1043 H       1      m1     0.0165
   4942 H           12.8587    -9.7460    14.0389 H       1      m1     0.0182
   4943 C           13.0037    -8.8267    16.3520 C       1      m1    -0.0147
   4944 C           14.3160    -9.0747    15.9079 C       1      m1    -0.0173
   4945 H           15.1436    -8.5634    16.3065 H       1      m1     0.0186
   4946 C           14.8537   -10.2583    15.1836 C       1      m1     0.0016
   4947 C           16.0344   -10.2140    14.3828 C       1      m1     0.0012
   4948 C           16.6236    -8.9476    13.9711 C       1      m1    -0.0034
   4949 H           16.6595    -8.6092    16.1804 H       1      m1     0.0176
   4950 C           17.7777    -8.2531    14.5138 C       1      m1     0.0025
   4951 C           17.7763    -8.4351    15.9204 C       1      m1    -0.0143
   4952 C          -17.6141    -3.5018    18.2267 C      22     m22    -0.0242
   4953 C          -16.4395    -2.7540    18.0931 C      22     m22    -0.0159
   4954 C          -15.0102    -3.1880    18.0562 C      22     m22     0.0022
   4955 H          -14.6557    -4.5592    14.1076 H       4      m4     0.0138
   4956 C          -13.9178    -2.6093    17.2360 C      22     m22    -0.0216
   4957 H          -14.1597    -2.0531    16.3246 H      22     m22     0.0135
   4958 H          -13.2647    -5.5339    15.2030 H       4      m4     0.0148
   4959 C          -12.9304    -6.1592    14.3003 C       4      m4    -0.0221
   4960 C          -12.7453    -2.6671    18.0460 C      22     m22    -0.0103
   4961 H          -12.2371    -3.0489    14.3865 H      11     m11     0.0189
   4962 H          -11.6005    -2.8960    17.8103 H      22     m22     0.0188
   4963 H          -11.7283    -5.1230    15.6099 H      11     m11     0.0184
   4964 C          -11.3647    -3.3486    15.0202 C      11     m11    -0.0221
   4965 C          -10.7748    -4.5616    15.6477 C      11     m11    -0.0106
   4966 C          -10.4757    -2.4700    15.4834 C      11     m11     0.0055
   4967 C           -9.2981    -4.7940    15.7301 C      11     m11    -0.0183
   4968 C           -9.3117    -2.5380    16.1222 C      11     m11    -0.0102
   4969 H           -8.8291    -5.7959    15.7847 H      11     m11     0.0204
   4970 C           -8.9883    -3.7298    16.6505 C      11     m11     0.0036
   4971 H           -8.2077    -2.9675    14.7405 H       8      m8     0.0229
   4972 C           -8.5702    -3.8495    18.0480 C      11     m11    -0.0016
   4973 C           -7.4941    -2.5746    13.8368 C       8      m8    -0.0158
   4974 C           -4.7147    -6.3615    16.4712 C      11     m11     0.0003
   4975 C           -4.9981    -2.5260    14.0675 C       8      m8    -0.0226
   4976 C           -4.5820    -5.0712    17.2206 C      11     m11    -0.0128
   4977 H           -3.8164    -4.4508    16.4532 H      11     m11     0.0117
   4978 H           -4.4702    -5.8226    14.6116 H      11     m11     0.0194
   4979 H           -4.1339    -2.4043    14.5351 H       8      m8     0.0170
   4980 H           -3.0313    -3.2896    17.3862 H       2      m2     0.0154
   4981 C           -2.1495    -2.9632    18.1089 C       2      m2    -0.0352
   4982 H           -1.5044    -2.1185    17.4531 H       2      m2     0.0152
   4983 H            0.4257    -3.2163    17.1868 H      10     m10     0.0177
   4984 H            1.1058    -3.7213    13.8880 H       1      m1     0.0143
   4985 C            1.1251    -2.5745    17.4255 C      10     m10    -0.0280
   4986 C            1.8171    -4.6331    13.8725 C       1      m1    -0.0172
   4987 C            2.1143    -3.4102    18.1738 C      10     m10     0.0032
   4988 C            2.8356    -4.0634    14.8807 C       1      m1    -0.0177
   4989 H            2.8290    -3.1110    15.4621 H       1      m1     0.0187
   4990 C            3.5463    -2.9748    18.3018 C      10     m10    -0.0002
   4991 C            4.3118    -4.2204    14.4057 C       1      m1     0.0009
   4992 C            5.5792    -3.8164    15.0183 C       1      m1    -0.0156
   4993 H            5.3843    -3.5467    16.1253 H       1      m1     0.0188
   4994 C            6.9660    -3.6062    14.5216 C       1      m1    -0.0179
   4995 H            8.0141    -3.3097    14.8620 H       1      m1     0.0147
   4996 H           10.2890    -5.5307    14.1542 H      30     m30     0.0161
   4997 H           10.2126    -4.8341    16.2659 H      30     m30     0.0160
   4998 C           11.1638    -5.3201    14.6724 C      30     m30    -0.0243
   4999 C           11.2703    -5.1419    16.1687 C      30     m30    -0.0182
   5000 C           12.2309    -5.5307    13.7838 C      30     m30     0.0075
   5001 C           12.6212    -4.6066    16.2778 C      30     m30    -0.0004
   5002 C           13.0043    -3.4932    17.3438 C      30     m30    -0.0008
   5003 C           13.6000    -5.6546    14.4278 C      30     m30    -0.0036
   5004 C           13.5423    -2.3019    16.8278 C      30     m30    -0.0108
   5005 C           13.8134    -5.4362    15.7921 C      30     m30     0.0006
   5006 H           13.8054    -1.6127    15.8885 H      30     m30     0.0177
   5007 C           14.7872    -5.6318    13.5591 C      30     m30     0.0006
   5008 C           14.9931    -5.5669    16.6015 C      30     m30    -0.0165
   5009 H           14.7905    -5.4643    17.7336 H      30     m30     0.0154
   5010 C           16.2172    -5.7510    14.4979 C      30     m30     0.0088
   5011 C           16.1948    -5.8764    15.8427 C      30     m30    -0.0189
   5012 H           17.1004    -6.1519    16.4506 H      30     m30     0.0177
   5013 C           17.2745    -5.2271    13.6872 C      30     m30    -0.0213
   5014 H           18.2096    -4.9272    14.0666 H      30     m30     0.0177
   5015 H           18.3595    -3.4749    17.6639 H      22     m22     0.0173
   5016 C          -18.2907    -0.3325    17.4996 C       1      m1    -0.0248
   5017 C          -17.8813    -1.2754    15.3121 C       1      m1    -0.0180
   5018 C          -17.9042    -1.3767    13.9957 C       1      m1    -0.0197
   5019 H          -17.0074    -1.9854    15.4232 H       1      m1     0.0124
   5020 H          -17.1517     0.1376    17.4654 H       1      m1     0.0127
   5021 H          -16.4588    -2.2326    17.1435 H      22     m22     0.0139
   5022 H          -13.7370    -0.7853    13.4145 H      11     m11     0.0161
   5023 H          -11.6406     2.0443    18.0607 H       9      m9     0.0107
   5024 H          -10.9928     1.1106    15.3210 H      11     m11     0.0125
   5025 C          -10.7751    -1.0440    14.8685 C      11     m11    -0.0035
   5026 C          -10.8521     0.0225    15.7329 C      11     m11    -0.0178
   5027 C           -9.8268    -0.0513    16.6450 C      11     m11    -0.0230
   5028 H          -10.1555     0.6490    17.2808 H      11     m11     0.0153
   5029 C           -9.0953    -1.3002    16.8249 C      11     m11     0.0050
   5030 C           -8.4101    -1.2261    18.2201 C      11     m11    -0.0220
   5031 H           -5.9758    -1.4824    15.3926 H       8      m8     0.0143
   5032 H           -6.6409     0.4746    17.8589 H       2      m2     0.0141
   5033 C           -6.2912    -2.2018    14.5396 C       8      m8    -0.0114
   5034 C           -5.6624     0.9058    17.9812 C       2      m2    -0.0151
   5035 H           -4.9834     1.4888    14.9954 H       1      m1     0.0187
   5036 C           -4.2407     1.2003    14.2919 C       1      m1    -0.0174
   5037 H           -3.7814    -0.5978    15.6002 H       1      m1     0.0153
   5038 C           -3.4428     0.0610    14.7444 C       1      m1    -0.0174
   5039 C           -2.9296     1.8089    17.5838 C       2      m2    -0.0020
   5040 C           -2.1529    -0.1720    14.2807 C       1      m1     0.0056
   5041 C           -1.7854     1.9330    16.8814 C       2      m2     0.0006
   5042 H           -0.9055    -1.5679    15.7867 H       1      m1     0.0147
   5043 C           -1.1073    -1.0592    14.9692 C       1      m1    -0.0222
   5044 C           -0.6623     1.4257    17.5733 C       2      m2    -0.0016
   5045 C            0.1813    -0.7771    14.5378 C       1      m1    -0.0163
   5046 H            0.4960    -1.3054    16.4634 H      10     m10     0.0151
   5047 C            0.5224     2.1120    17.5668 C       2      m2     0.0026
   5048 H            1.1094    -0.4372    15.0875 H       1      m1     0.0186
   5049 C            1.4662    -1.2654    17.0943 C      10     m10    -0.0130
   5050 H            2.5595     2.5776    15.2773 H      10     m10     0.0195
   5051 C            2.7731    -0.7568    17.1949 C      10     m10     0.0013
   5052 C            3.1721     2.0006    14.6414 C      10     m10    -0.0220
   5053 C            3.6265     0.3270    16.3588 C      10     m10    -0.0018
   5054 C            3.6102    -1.5761    17.9449 C      10     m10    -0.0006
   5055 C            3.8218     0.8053    14.7919 C      10     m10    -0.0006
   5056 H            4.9012    -1.4233    14.1146 H      10     m10     0.0197
   5057 C            4.6361     1.1957    16.9322 C      10     m10    -0.0102
   5058 C            4.9744     0.6949    13.8715 C      10     m10     0.0029
   5059 C            5.4379    -0.5962    13.7314 C      10     m10    -0.0210
   5060 C            5.1487     0.6404    18.1850 C      10     m10    -0.0156
   5061 H            8.8759     1.2597    13.9951 H       1      m1     0.0189
   5062 H           10.0462     0.0084    15.2053 H       1      m1     0.0153
   5063 C           10.3800    -0.5579    14.2883 C       1      m1    -0.0185
   5064 C           10.9876    -1.8410    14.3661 C       1      m1    -0.0137
   5065 H           11.4364    -2.5251    15.1774 H       1      m1     0.0187
   5066 H           12.6145     0.1395    14.8623 H       1      m1     0.0210
   5067 C           12.9212    -1.2616    17.4406 C      30     m30    -0.0247
   5068 C           13.1255     0.9004    15.3348 C       1      m1    -0.0213
   5069 H           13.1626    -0.2972    17.4991 H      30     m30     0.0200
   5070 C           14.3220     0.6139    15.8577 C       1      m1    -0.0083
   5071 H           16.0313    -0.8708    18.5144 H       1      m1     0.0182
   5072 C           15.5442     0.1527    16.2841 C       1      m1     0.0005
   5073 C           15.9149    -0.0587    17.6943 C       1      m1    -0.0181
   5074 C           16.4967    -0.7552    13.8600 C       1      m1     0.0027
   5075 C           16.7161    -0.3621    15.3289 C       1      m1    -0.0038
   5076 C           17.8447    -0.5538    16.0342 C       1      m1     0.0048
   5077 H          -18.0896    -1.3531    18.0125 H       1      m1     0.0178
   5078 C          -18.0526     4.3112    14.3609 C       1      m1     0.0027
   5079 C          -17.5758     5.1392    16.8840 C       1      m1    -0.0036
   5080 C          -17.1518     5.0450    15.4745 C       1      m1    -0.0309
   5081 H          -16.9107     6.1549    15.5443 H       1      m1     0.0198
   5082 H          -16.0420     4.7469    15.1672 H       1      m1     0.0145
   5083 H          -14.2375     2.8760    13.8715 H       1      m1     0.0123
   5084 H          -13.7413     6.2438    16.6329 H       9      m9     0.0139
   5085 C          -13.3514     5.7837    17.5396 C       9      m9    -0.0191
   5086 C          -13.0137     4.4522    17.9133 C       9      m9    -0.0145
   5087 H          -12.9847     3.4345    17.3651 H       9      m9     0.0118
   5088 H          -11.9699     6.8116    13.9336 H       1      m1     0.0137
   5089 H          -11.1859     5.6041    16.0123 H       9      m9     0.0128
   5090 C          -10.3584     5.7484    16.9055 C       9      m9    -0.0154
   5091 C           -9.6429     4.5359    17.3114 C       9      m9    -0.0166
   5092 H          -10.1078     3.5675    16.8493 H       9      m9     0.0127
   5093 H           -9.1370     2.6806    14.7440 H       1      m1     0.0152
   5094 C           -8.5054     3.3242    14.0749 C       1      m1    -0.0198
   5095 C           -7.5319     4.4542    13.9208 C       1      m1     0.0002
   5096 C           -6.9448     5.4807    14.7179 C       1      m1    -0.0161
   5097 H           -6.7629     4.8415    15.6891 H       1      m1     0.0151
   5098 H           -5.8299     2.8512    16.7011 H       2      m2     0.0163
   5099 C           -5.3728     2.3109    17.5131 C       2      m2    -0.0193
   5100 H           -4.4139     4.7981    16.2376 H       2      m2     0.0186
   5101 C           -3.9972     2.8356    17.1873 C       2      m2     0.0059
   5102 C           -3.7902     4.0367    16.4727 C       2      m2    -0.0206
   5103 H           -2.4531     4.5636    14.8402 H       2      m2     0.0171
   5104 C           -2.8287     3.7199    15.4728 C       2      m2    -0.0134
   5105 C           -1.6119     3.2676    16.1283 C       2      m2     0.0066
   5106 C           -0.3781     4.0376    15.9714 C       2      m2    -0.0191
   5107 H           -0.0341     4.7788    15.1046 H       2      m2     0.0129
   5108 C            0.4557     3.4705    17.0644 C       2      m2    -0.0189
   5109 H            0.8615     4.2194    17.6351 H       2      m2     0.0156
   5110 H            4.8811     2.3620    16.3826 H      10     m10     0.0131
   5111 C            7.3310     3.5422    15.1186 C       1      m1    -0.0353
   5112 H            6.2372     3.0170    14.7766 H       1      m1     0.0179
   5113 H            6.7905     3.4154    16.1250 H       1      m1     0.0150
   5114 C            8.0255     4.1855    14.1584 C       1      m1     0.0107
   5115 H            9.9707     5.3168    14.1267 H       1      m1     0.0212
   5116 C           12.0362     4.6629    17.9951 C       1      m1    -0.0196
   5117 H           11.8568     4.6344    14.6435 H       1      m1     0.0180
   5118 H           12.3022     4.7598    16.9834 H       1      m1     0.0207
   5119 C           12.6244     5.3644    14.7371 C       1      m1    -0.0212
   5120 C           13.0466     6.4615    15.7144 C       1      m1    -0.0138
   5121 C           13.1093     2.2700    14.6380 C       1      m1    -0.0160
   5122 H           13.4758     3.1646    14.8895 H       1      m1     0.0200
   5123 H           15.0742     3.3676    17.8106 H      24     m24     0.0228
   5124 C           15.5932     5.7727    13.7998 C       1      m1    -0.0026
   5125 C           16.2198     6.5857    14.9495 C       1      m1    -0.0046
   5126 C           17.1984     5.7805    15.5149 C       1      m1    -0.0033
   5127 H           17.2516     3.5442    17.4448 H      24     m24     0.0202
   5128 C           17.4236     4.6663    14.4325 C       1      m1    -0.0009
   5129 C           18.1727     6.0874    16.5765 C       1      m1     0.0014
   5130 H          -17.3319    11.1798    14.8473 H       1      m1     0.0124
   5131 H          -17.0109     9.5178    18.0424 H       1      m1     0.0147
   5132 C          -16.5449    10.6032    14.3286 C       1      m1    -0.0200
   5133 C          -15.6896     9.6084    14.9672 C       1      m1    -0.0200
   5134 H          -16.1013     9.3819    15.9702 H       1      m1     0.0133
   5135 C          -15.0015     8.7275    14.0392 C       1      m1     0.0040
   5136 H          -14.4702    10.6248    17.8021 H       9      m9     0.0182
   5137 H          -14.4654     8.3934    17.6481 H       9      m9     0.0131
   5138 C          -13.8236     7.9525    14.5724 C       1      m1    -0.0195
   5139 H          -13.7231     7.9258    15.6907 H       1      m1     0.0125
   5140 C          -12.8841     7.3375    13.6829 C       1      m1    -0.0142
   5141 H          -11.9010     7.8802    16.8600 H       9      m9     0.0163
   5142 C          -11.3865     8.0442    17.7394 C       9      m9    -0.0168
   5143 H          -10.0214    11.1238    14.1553 H       1      m1     0.0143
   5144 C          -10.5308     6.7400    17.7789 C       9      m9     0.0033
   5145 H           -7.2261     7.7159    14.8643 H       1      m1     0.0140
   5146 C           -7.2441     6.7411    14.2655 C       1      m1    -0.0187
   5147 C           -5.0543     8.8303    17.3022 C       4      m4    -0.0199
   5148 H           -5.5183     7.7412    16.8812 H       4      m4     0.0166
   5149 C           -4.2240    10.0397    16.9708 C       4      m4     0.0028
   5150 C           -3.3948    10.3078    15.7925 C       4      m4    -0.0177
   5151 H           -2.5411     9.5730    15.3883 H       4      m4     0.0128
   5152 H           -2.7714     8.1302    14.0665 H       1      m1     0.0156
   5153 H           -0.3307     7.9831    14.1623 H       1      m1     0.0161
   5154 C            2.9590    10.5897    18.0463 C       4      m4     0.0061
   5155 C            3.8034    10.7696    15.6827 C       4      m4     0.0061
   5156 H            4.6186     8.0798    17.4709 H       4      m4     0.0134
   5157 C            4.0294     9.3152    15.6818 C       4      m4    -0.0200
   5158 C            4.3752     9.1912    17.1419 C       4      m4    -0.0085
   5159 H            3.3926     8.6640    14.8946 H       4      m4     0.0136
   5160 H            7.0289     9.9973    14.9175 H       1      m1     0.0229
   5161 C            7.5513     9.2723    14.8998 C       1      m1    -0.0202
   5162 C            7.4882     9.2092    17.5451 C       1      m1    -0.0004
   5163 C            8.2089     9.1258    16.4450 C       1      m1    -0.0034
   5164 H            9.4201     7.2733    17.8058 H       1      m1     0.0212
   5165 H            9.9249    11.2539    15.3878 H       1      m1     0.0151
   5166 C            9.4624     8.8295    16.1688 C       1      m1     0.0028
   5167 C            9.9585     8.2269    17.5579 C       1      m1    -0.0381
   5168 C           10.1238     8.7113    14.8850 C       1      m1    -0.0046
   5169 C           11.2069     7.8809    14.7753 C       1      m1    -0.0000
   5170 C           11.3183     7.6119    17.2243 C       1      m1    -0.0012
   5171 C           12.0662     7.5327    16.0415 C       1      m1    -0.0051
   5172 H           13.8197     6.9705    16.3435 H       1      m1     0.0199
   5173 H           14.5243     9.7315    15.2378 H       1      m1     0.0193
   5174 H           16.0776    10.5470    17.6997 H       1      m1     0.0110
   5175 C           15.5618     9.3358    14.9889 C       1      m1    -0.0417
   5176 C           15.9372     7.9875    14.8511 C       1      m1     0.0004
   5177 H           16.3036    10.0657    14.9973 H       1      m1     0.0199
   5178 H           17.4398     7.9194    17.7017 H       1      m1     0.0194
   5179 C           18.1382     7.2676    17.3873 C       1      m1    -0.0259
   5180 C          -18.3644    14.7126    16.0539 C       1      m1    -0.0168
   5181 H          -17.0314    12.7560    17.2577 H       1      m1     0.0152
   5182 C          -16.4353    13.4752    17.3469 C       1      m1    -0.0225
   5183 C          -15.5705    13.8243    16.2906 C       1      m1    -0.0139
   5184 H          -15.3053    12.6134    16.0602 H       1      m1     0.0115
   5185 C          -14.7933    15.0925    15.9654 C       1      m1     0.0029
   5186 H          -14.3087    14.4623    13.7263 H       1      m1     0.0147
   5187 C          -14.2987    15.3207    14.6816 C       1      m1    -0.0158
   5188 H          -13.8070    12.9695    16.2881 H       9      m9     0.0191
   5189 C          -13.1090    12.2655    18.1109 C       9      m9     0.0057
   5190 C          -12.8280    12.5939    16.6578 C       9      m9    -0.0289
   5191 H          -12.7846    11.7473    15.8133 H       9      m9     0.0161
   5192 C          -11.6217    13.5696    16.2574 C       9      m9    -0.0186
   5193 H          -11.8258    14.5847    15.6948 H       9      m9     0.0154
   5194 C          -11.1237    13.9679    17.6148 C       9      m9     0.0043
   5195 C          -10.1148    15.1236    17.5929 C       9      m9    -0.0212
   5196 H           -7.2884    14.2274    18.0810 H       4      m4     0.0183
   5197 C           -7.6529    14.3839    13.6616 C       1      m1    -0.0109
   5198 H           -8.2510    14.0930    14.5783 H       1      m1     0.0156
   5199 C           -7.0810    13.3395    17.5878 C       4      m4    -0.0206
   5200 H           -5.6663    15.5952    16.0631 H       4      m4     0.0228
   5201 C           -6.2666    13.2047    16.4133 C       4      m4     0.0035
   5202 C           -5.5420    14.5800    15.8960 C       4      m4    -0.0185
   5203 C           -5.3546    12.1314    16.5205 C       4      m4    -0.0017
   5204 C           -5.4465    10.9856    17.1554 C       4      m4    -0.0006
   5205 C           -4.5447    14.6036    14.9527 C       4      m4    -0.0100
   5206 C           -4.2031    12.2993    15.4138 C       4      m4     0.0083
   5207 C           -3.7987    13.5006    14.7656 C       4      m4    -0.0167
   5208 H           -4.1399    15.5002    14.3663 H       4      m4     0.0194
   5209 C           -3.5821    11.3261    15.0548 C       4      m4    -0.0160
   5210 H           -2.5642    10.9981    14.4063 H       4      m4     0.0159
   5211 H           -2.8186    13.6903    14.1138 H       4      m4     0.0177
   5212 H           -0.0107    15.7275    16.4601 H       4      m4     0.0200
   5213 H            0.0962    14.5162    14.2660 H       4      m4     0.0187
   5214 C            0.2917    14.6541    16.3922 C       4      m4    -0.0149
   5215 C            0.5539    13.9290    17.8380 C       4      m4    -0.0023
   5216 C            0.5856    14.0074    15.2326 C       4      m4    -0.0153
   5217 C            1.1053    12.5266    17.6992 C       4      m4     0.0003
   5218 C            1.5402    12.9196    15.1256 C       4      m4     0.0035
   5219 C            1.8315    12.2989    16.5045 C       4      m4     0.0001
   5220 C            2.5631    11.0491    16.6173 C       4      m4    -0.0034
   5221 C            2.7872    12.7195    14.4244 C       4      m4    -0.0158
   5222 H            3.7554    15.2241    17.9213 H       1      m1     0.0136
   5223 C            3.8226    11.8176    14.6457 C       4      m4    -0.0191
   5224 H            4.5442    12.1443    13.9756 H       4      m4     0.0175
   5225 C            5.2116    15.1976    15.9145 C       1      m1    -0.0192
   5226 H            5.6501    14.0935    16.0320 H       1      m1     0.0187
   5227 C            8.8153    13.4967    17.9647 C       1      m1     0.0012
   5228 C            9.2666    12.1043    17.5245 C       1      m1    -0.0167
   5229 H            8.8222    11.3609    18.2313 H       1      m1     0.0192
   5230 C            9.0698    14.7605    17.1498 C       1      m1     0.0053
   5231 C            9.2898    12.0689    16.0805 C       1      m1    -0.0111
   5232 C           10.1343    13.1024    15.5713 C       1      m1    -0.0149
   5233 C           10.1982    14.5840    16.0300 C       1      m1    -0.0168
   5234 H           10.7020    15.2756    15.3336 H       1      m1     0.0142
   5235 H           10.3542    12.8814    14.3192 H       1      m1     0.0091
   5236 C           11.7612    14.6581    16.6031 C       1      m1    -0.0026
   5237 H           11.8244    12.4276    16.6529 H       1      m1     0.0196
   5238 C           12.1436    13.3852    17.0862 C       1      m1    -0.0156
   5239 C           13.1987    13.1831    18.0808 C       1      m1     0.0011
   5240 C           13.9457    11.8978    17.8778 C       1      m1    -0.0165
   5241 C           14.1951    14.3282    17.9989 C       1      m1    -0.0001
   5242 C           15.4569    11.5611    17.7500 C       1      m1    -0.0184
   5243 C           16.0475    12.8654    17.8624 C       1      m1    -0.0153
   5244 H           16.7920    13.1001    14.0566 H       1      m1     0.0150
   5245 H           18.1566    13.6824    16.2851 H       1      m1     0.0123
   5246 C           18.2660    15.4655    14.8972 C       1      m1    -0.0137
   5247 C          -18.1024    15.6250    17.1342 C       1      m1     0.0042
   5248 C          -17.5955    16.5630    14.6062 C       1      m1    -0.0165
   5249 C          -17.1320    17.5439    18.0508 C       1      m1    -0.0008
   5250 C          -17.1724    16.7221    16.8106 C       1      m1     0.0027
   5251 C          -17.4797    17.6599    15.4894 C       1      m1     0.0043
   5252 H          -17.3476    16.1867    13.6387 H       1      m1     0.0162
   5253 C          -16.4911    19.0719    17.8398 C       1      m1     0.0023
   5254 C          -16.1558    19.5844    14.3533 C       1      m1    -0.0024
   5255 C          -16.1918    18.5653    15.3279 C       1      m1     0.0014
   5256 C          -15.6791    18.8835    16.7031 C       1      m1    -0.0132
   5257 H          -14.6285    19.4094    16.9413 H       1      m1     0.0160
   5258 C          -14.5253    15.8795    17.2001 C       1      m1     0.0008
   5259 C          -13.9462    17.0984    16.6454 C       1      m1     0.0066
   5260 C          -13.4161    17.3178    15.3334 C       1      m1    -0.0191
   5261 C          -13.7999    16.5447    14.2405 C       1      m1    -0.0129
   5262 C          -13.7273    17.7578    17.7698 C       1      m1    -0.0191
   5263 H          -12.7773    18.2547    15.1311 H       1      m1     0.0150
   5264 H          -13.4213    18.8708    17.8484 H       1      m1     0.0122
   5265 H          -10.6453    15.6678    16.6959 H       9      m9     0.0135
   5266 H           -7.9721    16.1795    14.4946 H       1      m1     0.0183
   5267 C           -8.1305    15.7215    13.5610 C       1      m1    -0.0189
   5268 H           -7.7657    18.2819    15.9614 H       4      m4     0.0158
   5269 C           -6.8580    17.1714    17.6646 C       4      m4    -0.0226
   5270 C           -6.7802    17.8642    16.4051 C       4      m4    -0.0182
   5271 H           -6.1198    19.4240    18.0436 H       4      m4     0.0197
   5272 C           -5.4960    18.1797    15.9399 C       4      m4     0.0010
   5273 C           -5.0672    19.6392    15.7554 C       4      m4     0.0008
   5274 C           -4.2797    17.8449    16.5078 C       4      m4    -0.0009
   5275 C           -4.2449    17.0915    17.6201 C       4      m4    -0.0037
   5276 C           -3.6727    19.3276    14.9833 C       4      m4    -0.0209
   5277 H           -3.1558    19.7100    14.1546 H       4      m4     0.0199
   5278 C           -3.1340    18.1383    15.6138 C       4      m4     0.0027
   5279 C           -2.0399    17.5565    16.3005 C       4      m4    -0.0182
   5280 C           -2.0046    16.8352    17.5079 C       4      m4    -0.0033
   5281 H           -1.0927    19.4719    13.7227 H       1      m1     0.0210
   5282 H           -0.9272    17.9575    16.0367 H       4      m4     0.0176
   5283 H            1.3486    19.7366    17.6901 H       1      m1     0.0180
   5284 H            3.3551    16.9487    18.3168 H       1      m1     0.0157
   5285 H            3.2950    18.9731    17.1015 H       1      m1     0.0194
   5286 C            3.8992    17.0692    17.2523 C       1      m1    -0.0242
   5287 C            4.3063    19.1575    16.8688 C       1      m1    -0.0249
   5288 C            4.4480    15.8247    16.8273 C       1      m1    -0.0024
   5289 C            4.4769    17.9975    16.5069 C       1      m1     0.0080
   5290 C            5.6816    17.5286    15.8915 C       1      m1    -0.0030
   5291 C            5.9831    16.2626    15.3196 C       1      m1     0.0081
   5292 C            6.3346    18.8142    15.6720 C       1      m1    -0.0014
   5293 C            6.8388    16.2736    14.3418 C       1      m1    -0.0216
   5294 H            6.9392    15.5816    13.5540 H       1      m1     0.0173
   5295 C            7.4332    18.6068    14.8488 C       1      m1     0.0024
   5296 C            7.6108    17.4195    14.2479 C       1      m1    -0.0153
   5297 C            8.3245    19.7665    14.6513 C       1      m1    -0.0175
   5298 H            8.5565    17.2919    13.5261 H       1      m1     0.0122
   5299 H            8.1090    19.8717    18.1237 H       1      m1     0.0197
   5300 C            8.5397    15.9989    17.3947 C       1      m1    -0.0156
   5301 H            8.6768    16.7928    16.4436 H       1      m1     0.0158
   5302 H            9.7708    18.0070    17.7812 H       1      m1     0.0166
   5303 H           11.3716    17.3159    15.9853 H       1      m1     0.0150
   5304 H           12.5090    19.5183    17.3085 H       1      m1     0.0113
   5305 C           12.1717    17.2862    16.6283 C       1      m1    -0.0211
   5306 C           12.4021    15.9375    17.1675 C       1      m1    -0.0008
   5307 C           12.5554    18.3412    17.5014 C       1      m1    -0.0134
   5308 C           13.5252    15.7319    18.0530 C       1      m1    -0.0009
   5309 H           14.2500    18.9644    16.3259 H       1      m1     0.0194
   5310 C           15.0370    19.4998    15.8632 C       1      m1    -0.0192
   5311 C           15.5692    19.4917    14.6815 C       1      m1     0.0019
   5312 H           17.1876    15.3388    14.4507 H       1      m1     0.0166
   5313 C           17.8964    19.8203    14.1849 C       1      m1     0.0006
   5314 C          -18.4157   -16.5359    21.8415 C       1      m1     0.0042
   5315 C          -17.7476   -18.7381    21.7082 C       1      m1     0.0026
   5316 C          -17.2737   -16.6549    20.8597 C       1      m1    -0.0032
   5317 H          -17.5809   -19.6286    18.6290 H       1      m1     0.0227
   5318 C          -16.8995   -17.9061    20.9841 C       1      m1    -0.0003
   5319 C          -16.3709   -19.5102    18.5148 C       1      m1    -0.0315
   5320 C          -16.0961   -15.6500    20.4667 C       1      m1     0.0009
   5321 C          -15.5923   -18.3127    20.3053 C       1      m1     0.0010
   5322 C          -15.3777   -19.8413    20.0874 C       1      m1    -0.0090
   5323 C          -14.6832   -15.9117    20.0815 C       1      m1    -0.0186
   5324 C          -14.7493   -17.2951    19.6993 C       1      m1    -0.0172
   5325 H          -13.8983   -17.6687    19.0564 H       1      m1     0.0145
   5326 C           -8.2643   -16.2901    19.1915 C       4      m4    -0.0188
   5327 H           -7.5386   -16.9972    21.1224 H       4      m4     0.0133
   5328 C           -7.8342   -17.2995    20.0753 C       4      m4    -0.0145
   5329 C           -7.5012   -18.4774    19.4174 C       4      m4    -0.0155
   5330 H           -7.1482   -19.1527    20.2183 H       4      m4     0.0154
   5331 H           -5.7707   -19.1930    21.9971 H       2      m2     0.0149
   5332 H           -4.5070   -17.6227    20.7466 H       1      m1     0.0148
   5333 C           -4.2763   -15.7828    19.3522 C       1      m1    -0.0105
   5334 C           -4.1052   -17.2058    19.8014 C       1      m1    -0.0186
   5335 C           -3.3654   -17.9090    18.7183 C       1      m1     0.0064
   5336 C           -2.9467   -19.2443    18.9564 C       1      m1    -0.0153
   5337 C           -1.8788   -19.7883    18.3637 C       1      m1    -0.0192
   5338 H           -1.1825   -17.5692    19.4210 H      13     m13     0.0210
   5339 H           -0.3033   -18.6878    21.3184 H      13     m13     0.0152
   5340 C           -0.7073   -17.0214    20.3017 C      13     m13    -0.0196
   5341 C           -0.1707   -15.5996    20.1061 C      13     m13     0.0049
   5342 C           -0.2934   -17.6300    21.4802 C      13     m13    -0.0097
   5343 C           -0.2847   -17.0256   -22.7029 C      13     m13    -0.0257
   5344 C            0.2757   -15.6307    22.6044 C      13     m13     0.0011
   5345 H            2.4797   -19.1600    22.0377 H       4      m4     0.0209
   5346 C            3.1745   -17.9672    19.3836 C       1      m1     0.0072
   5347 C            3.2583   -16.6282    19.1146 C       1      m1    -0.0019
   5348 C            3.1562   -15.7832    20.2955 C       1      m1     0.0002
   5349 C            3.3772   -17.4734    21.8767 C       1      m1     0.0043
   5350 C            3.3101   -18.3703    20.8098 C       1      m1    -0.0286
   5351 C            3.4546   -16.1130    21.6157 C       1      m1     0.0017
   5352 C            4.0021   -18.9299    18.7077 C       1      m1    -0.0232
   5353 H            3.6508   -19.2447    21.3150 H       1      m1     0.0159
   5354 H            4.3215   -19.8389    19.3920 H       1      m1     0.0135
   5355 H            5.5478   -17.2861    20.1913 H       1      m1     0.0214
   5356 H            5.5527   -17.8545   -22.5545 H       1      m1     0.0203
   5357 C            6.1232   -16.9448    19.3877 C       1      m1    -0.0179
   5358 H            6.3686   -19.1457    18.8183 H       1      m1     0.0142
   5359 C            6.4636   -17.9600    18.5206 C       1      m1    -0.0134
   5360 C            6.7548   -15.6794    19.1926 C       1      m1     0.0023
   5361 H            7.1936   -19.1020    22.2046 H      21     m21     0.0108
   5362 C            7.4068   -16.4764    21.8940 C       1      m1    -0.0218
   5363 H            7.6176   -17.0883    21.0649 H       1      m1     0.0189
   5364 H            8.4920   -17.6570    19.4220 H       1      m1     0.0213
   5365 C            9.2106   -18.2624    19.8903 C       1      m1    -0.0276
   5366 C            9.4102   -19.7303    19.8475 C       1      m1     0.0072
   5367 H            9.8690   -15.8250    22.5095 H       1      m1     0.0155
   5368 C           10.4020   -19.3913    22.3632 C       1      m1     0.0031
   5369 C           10.2422   -17.6759    20.6046 C       1      m1     0.0009
   5370 C           10.9422   -18.0476    21.7031 C       1      m1    -0.0276
   5371 H           10.6102   -15.1879    21.0554 H       1      m1     0.0170
   5372 H           11.7391   -17.6792    22.2556 H       1      m1     0.0176
   5373 C           12.5585   -15.7480    19.3964 C       1      m1     0.0041
   5374 H           12.1099   -18.0330    19.7556 H       1      m1     0.0191
   5375 C           12.5108   -17.2473    19.0771 C       1      m1    -0.0178
   5376 H           13.4064   -18.3074    21.1162 H       6      m6     0.0157
   5377 C           13.7652   -17.8563    18.7131 C       1      m1    -0.0197
   5378 C           14.1711   -19.0553    21.9477 C       6      m6    -0.0106
   5379 C           14.7039   -15.7328    18.9490 C       1      m1    -0.0005
   5380 C           14.8883   -17.0914    18.3368 C       1      m1    -0.0010
   5381 H           16.2451   -17.0957    22.3110 H       1      m1     0.0192
   5382 H           17.2470   -19.7149    22.1930 H       1      m1     0.0184
   5383 C           17.1774   -17.3236    21.8555 C       1      m1    -0.0188
   5384 C           17.7711   -18.7114    22.0469 C       1      m1    -0.0173
   5385 C          -17.4301   -14.3014    21.7670 C       1      m1     0.0015
   5386 C          -16.4153   -14.3311    20.8025 C       1      m1    -0.0006
   5387 H          -15.1748   -12.6026    19.5015 H       1      m1     0.0162
   5388 C          -15.5692   -12.9832    20.7639 C       1      m1    -0.0340
   5389 H          -14.8730   -13.2943    21.4167 H       1      m1     0.0192
   5390 H          -13.7610   -15.2263    20.0108 H       1      m1     0.0123
   5391 H          -13.4179   -11.6891    19.8746 H       4      m4     0.0137
   5392 H          -12.4963   -13.6194    19.3395 H       4      m4     0.0120
   5393 C          -12.5922   -11.1409    19.2760 C       4      m4    -0.0156
   5394 C          -12.4642   -11.4821    22.4290 C      11     m11    -0.0162
   5395 C          -11.6237   -13.2431    18.6440 C       4      m4    -0.0207
   5396 C          -11.6306   -11.8257    18.4046 C       4      m4     0.0046
   5397 C          -10.3998   -13.9255    18.1511 C       4      m4    -0.0148
   5398 C          -10.1347   -11.6562    21.1350 C      11     m11    -0.0206
   5399 H          -10.3343   -14.6445    21.2760 H      19     m19     0.0110
   5400 H          -10.1480   -12.6999    21.3042 H      11     m11     0.0172
   5401 H          -10.4573   -14.8287    18.9209 H       4      m4     0.0138
   5402 C           -9.2139   -11.2019    20.1733 C      11     m11    -0.0194
   5403 H           -9.1491   -11.7666    22.6230 H      19     m19     0.0176
   5404 H           -8.6970   -12.0886    19.7997 H      11     m11     0.0152
   5405 H           -8.6277   -15.3878    19.5130 H       4      m4     0.0158
   5406 H           -7.3658   -13.4486    18.2561 H       4      m4     0.0133
   5407 C           -6.1249   -12.7337    22.4067 C      20     m20    -0.0199
   5408 H           -6.5438   -12.2563    21.4363 H      20     m20     0.0124
   5409 C           -4.9537   -13.6300    22.3671 C      20     m20     0.0019
   5410 H           -5.2625   -15.3110    19.4674 H       1      m1     0.0171
   5411 H           -3.9285   -12.6850    20.4190 H      20     m20     0.0157
   5412 H           -4.1163   -11.1791    18.8439 H      11     m11     0.0147
   5413 H           -3.2076   -14.2573    17.6233 H       1      m1     0.0163
   5414 C           -3.9439   -13.2680    21.3147 C      20     m20    -0.0198
   5415 C           -3.3715   -15.0740    18.3824 C       1      m1    -0.0180
   5416 C           -2.9943   -14.2978    21.3731 C      20     m20    -0.0123
   5417 H           -2.1731   -14.5831    20.7741 H      20     m20     0.0230
   5418 C           -0.4497   -15.0778    18.9981 C      13     m13    -0.0158
   5419 C           -0.3250   -13.6522    18.7377 C      13     m13    -0.0219
   5420 C            0.2621   -13.6177    21.3750 C      13     m13    -0.0014
   5421 C            0.4305   -11.3718    19.8906 C      13     m13    -0.0203
   5422 C            0.1125   -12.8359    19.9523 C      13     m13     0.0023
   5423 C            0.4632   -12.6938    22.4412 C      13     m13     0.0050
   5424 C            0.2493   -11.2862    22.4024 C      13     m13    -0.0200
   5425 C            0.6053   -14.9933    21.3129 C      13     m13     0.0002
   5426 H            1.1021   -11.3836    19.0187 H      13     m13     0.0137
   5427 H            2.0496   -13.3053    18.7118 H       1      m1     0.0176
   5428 C            2.9472   -13.9317    18.5275 C       1      m1    -0.0206
   5429 C            3.3617   -14.4649    19.9011 C       1      m1     0.0086
   5430 H            4.1375   -12.5972    20.1903 H       1      m1     0.0213
   5431 C            4.1333   -13.4321    20.5631 C       1      m1    -0.0208
   5432 C            4.2402   -13.6661    21.9659 C       1      m1    -0.0133
   5433 C            4.0820   -15.0253    22.2833 C       1      m1    -0.0140
   5434 H            4.8034   -12.9207    22.5256 H       1      m1     0.0139
   5435 H            6.9082   -12.5981    20.7140 H       1      m1     0.0181
   5436 H            6.7917   -15.1724   -22.5791 H       1      m1     0.0204
   5437 C            6.7827   -14.6542    20.3451 C       1      m1     0.0061
   5438 C            6.8098   -13.3494    20.0067 C       1      m1    -0.0237
   5439 C            6.9109   -15.2691    21.6354 C       1      m1    -0.0155
   5440 C            7.3591   -12.9820    18.7137 C       1      m1     0.0063
   5441 C            8.1558   -11.8875    18.6758 C       1      m1    -0.0238
   5442 H            7.7128   -11.1162    19.2143 H       1      m1     0.0181
   5443 H            8.9906   -11.4882    22.1902 H      10     m10     0.0180
   5444 C            9.8952   -11.0421    22.0725 C      10     m10    -0.0188
   5445 H           10.5171   -13.0573    22.4499 H       1      m1     0.0194
   5446 C           11.6125   -13.4828    22.4113 C       1      m1    -0.0187
   5447 C           11.4291   -14.9901    20.2980 C       1      m1    -0.0208
   5448 C           12.1871   -14.1018    21.2077 C       1      m1     0.0028
   5449 C           13.6181   -13.5821    21.7540 C       1      m1    -0.0213
   5450 C           13.8766   -15.2909    19.9991 C       1      m1    -0.0042
   5451 H           13.5804   -12.4455    22.0581 H       1      m1     0.0208
   5452 C           14.3843   -13.9644    20.7462 C       1      m1     0.0026
   5453 C           15.6771   -13.2843    20.2737 C       1      m1    -0.0177
   5454 C           15.7004   -14.9219    18.3930 C       1      m1     0.0040
   5455 H           15.5776   -12.1992    20.5504 H       1      m1     0.0162
   5456 C           16.1542   -13.7585    18.9345 C       1      m1    -0.0215
   5457 H           17.3771   -15.2916    20.9600 H       1      m1     0.0218
   5458 H           16.8058   -13.2353    18.6964 H       1      m1     0.0289
   5459 C           18.0279   -15.0496    21.8947 C       1      m1    -0.0149
   5460 H          -17.9567    -8.0851    20.1288 H       1      m1     0.0152
   5461 C          -18.1882    -8.8441    19.3407 C       1      m1    -0.0148
   5462 C          -17.1446   -10.7071    18.5018 C       1      m1     0.0055
   5463 H          -17.3821    -7.9694    21.7889 H      22     m22     0.0164
   5464 C          -16.9983    -9.5753    19.3036 C       1      m1    -0.0230
   5465 H          -15.9729    -9.3643    19.4860 H       1      m1     0.0160
   5466 H          -13.8487    -9.2294    21.8458 H      11     m11     0.0211
   5467 H          -13.4454    -9.1159    19.7291 H       4      m4     0.0158
   5468 C          -12.7981    -9.7869    19.0560 C       4      m4    -0.0157
   5469 C          -12.1531    -8.6597    21.9090 C      11     m11     0.0005
   5470 C          -11.6999    -7.3054    22.2749 C      11     m11    -0.0181
   5471 C          -11.2048   -11.0335    21.8159 C      11     m11     0.0042
   5472 C          -11.1216    -9.5979    21.7142 C      11     m11     0.0009
   5473 C          -10.5890    -6.7826    21.6979 C      11     m11    -0.0168
   5474 C          -10.2070    -9.0145    20.6036 C      11     m11    -0.0010
   5475 C           -9.8754    -7.7758    20.7804 C      11     m11     0.0011
   5476 C           -9.3717    -9.8655    19.9065 C      11     m11     0.0080
   5477 C           -8.7785    -7.3176    19.8564 C      11     m11    -0.0055
   5478 C           -8.4261    -9.4784    18.8449 C      11     m11    -0.0168
   5479 C           -7.9226    -8.1590    19.3571 C      11     m11     0.0017
   5480 H           -7.8312   -10.3766    18.5688 H      11     m11     0.0183
   5481 C           -6.5734    -8.1558    18.7989 C      11     m11     0.0016
   5482 C           -5.6592    -9.2569    18.9070 C      11     m11    -0.0194
   5483 C           -5.8352    -6.9042    18.7774 C      11     m11    -0.0008
   5484 H           -5.8361   -10.1502    19.6754 H      11     m11     0.0131
   5485 H           -0.0190    -9.6246    21.3979 H      13     m13     0.0146
   5486 C           -0.0930   -10.7248    21.1183 C      13     m13    -0.0089
   5487 H            1.9924    -8.2742    20.4929 H      10     m10     0.0151
   5488 C            2.8517    -8.8003   -22.6792 C      10     m10    -0.0141
   5489 C            2.7709    -8.4816    21.2248 C      10     m10    -0.0217
   5490 H            2.9639    -9.8003    18.8780 H      10     m10     0.0177
   5491 H            3.4585    -8.3962    18.4687 H      10     m10     0.0242
   5492 C            3.8243    -9.0748    19.0386 C      10     m10    -0.0557
   5493 C            3.8950    -9.2405    20.4985 C      10     m10     0.0069
   5494 H            4.8999    -9.2571    18.5076 H      10     m10     0.0203
   5495 C            5.0930    -8.9999    21.3868 C      10     m10    -0.0043
   5496 C            6.1138    -8.0999    21.0376 C      10     m10    -0.0010
   5497 C            6.0978    -6.8295    20.1184 C      10     m10     0.0056
   5498 C            7.2635    -8.4039    21.8079 C      10     m10     0.0027
   5499 C            8.3445    -7.4237    21.5326 C      10     m10    -0.0206
   5500 C            8.5142    -7.1572    20.0275 C      10     m10    -0.0111
   5501 H            8.9472    -7.2490    22.2730 H      10     m10     0.0201
   5502 H            9.1951    -7.6707    19.1897 H      10     m10     0.0131
   5503 C           10.4649   -10.3994    21.0850 C      10     m10    -0.0127
   5504 H            9.9722   -10.3497    19.9544 H      10     m10     0.0168
   5505 C           11.6539    -9.5735    21.4369 C      10     m10     0.0034
   5506 C           12.6646    -8.9615    20.6773 C      10     m10    -0.0242
   5507 H           12.5343    -8.9887    19.7084 H      10     m10     0.0196
   5508 C           13.9167    -8.7055    21.1524 C      10     m10    -0.0111
   5509 C           14.5470    -8.7176    22.4700 C      10     m10    -0.0235
   5510 H           14.8262    -8.2803    20.5747 H      10     m10     0.0124
   5511 H           14.9242   -10.7720    19.6481 H       1      m1     0.0166
   5512 H           15.4204    -8.3899   -22.3300 H      10     m10     0.0185
   5513 C           15.4376   -10.4774    18.6781 C       1      m1    -0.0234
   5514 H           17.3418    -7.6258    18.7047 H       1      m1     0.0117
   5515 C           16.8888   -10.1155    18.5058 C       1      m1     0.0057
   5516 C           17.4602    -8.8008    18.5266 C       1      m1    -0.0226
   5517 H           17.4814    -6.3967    21.3516 H      22     m22     0.0129
   5518 H           17.9384   -10.3019    22.6834 H      22     m22     0.0189
   5519 C           18.0256   -10.9950    18.1474 C       1      m1     0.0001
   5520 C           18.3671    -5.8332    20.7703 C      22     m22    -0.0198
   5521 C          -17.4047    -4.6090    19.0073 C      22     m22     0.0062
   5522 C          -17.2871    -5.2703    21.5917 C      22     m22    -0.0014
   5523 C          -16.1906    -4.5320    19.7251 C      22     m22    -0.0014
   5524 C          -16.0498    -5.1651    20.9321 C      22     m22    -0.0003
   5525 C          -14.9225    -4.0090    19.2509 C      22     m22     0.0003
   5526 C          -14.7998    -5.4909    21.6216 C      22     m22    -0.0156
   5527 H          -15.1749    -6.2396    22.3430 H      22     m22     0.0187
   5528 C          -13.5433    -4.1845    19.9738 C      22     m22     0.0050
   5529 C          -13.5697    -4.9797    21.3328 C      22     m22    -0.0184
   5530 C          -12.4591    -3.7098    19.1960 C      22     m22    -0.0193
   5531 H          -12.5517    -5.2455    21.5589 H      22     m22     0.0178
   5532 H          -12.3311    -7.2887   -22.2838 H      11     m11     0.0173
   5533 H          -11.3432    -3.9393    19.4473 H      22     m22     0.0147
   5534 H          -10.2089    -5.7783    21.6489 H      11     m11     0.0145
   5535 H           -9.3501    -4.4375    19.5772 H      11     m11     0.0162
   5536 C           -9.1111    -5.0778    18.8091 C      11     m11    -0.0223
   5537 C           -8.2779    -2.4840    18.6886 C      11     m11    -0.0161
   5538 C           -8.1788    -5.9558    19.5669 C      11     m11     0.0048
   5539 H           -8.4142    -2.5542    19.8018 H      11     m11     0.0127
   5540 H           -7.0489    -4.4891    20.7448 H      11     m11     0.0179
   5541 C           -6.9579    -5.5091    20.4759 C      11     m11    -0.0444
   5542 H           -6.8469    -6.0791    21.2576 H      11     m11     0.0218
   5543 C           -5.8027    -5.6129    19.3605 C      11     m11     0.0051
   5544 C           -5.0353    -4.5720    18.5325 C      11     m11    -0.0154
   5545 H           -5.1333    -3.3610    18.5659 H      11     m11     0.0149
   5546 H           -3.0195    -4.4582    21.8286 H       2      m2     0.0202
   5547 C           -2.3606    -2.5726    21.8436 C       2      m2    -0.0056
   5548 C           -2.0153    -3.2199    19.3714 C       2      m2     0.0020
   5549 C           -1.9062    -3.5782    20.6937 C       2      m2    -0.0030
   5550 C           -0.6779    -4.3825    20.6985 C       2      m2    -0.0204
   5551 C           -0.7751    -4.6824    22.0457 C       2      m2    -0.0075
   5552 H           -0.1222    -4.3688    19.7225 H       2      m2     0.0169
   5553 H            0.7365    -5.2649    18.4428 H      10     m10     0.0143
   5554 C            1.7710    -4.8342    18.4512 C      10     m10    -0.0177
   5555 H            2.8761    -6.4164    19.7554 H      10     m10     0.0207
   5556 C            2.7995    -5.8139    18.9956 C      10     m10    -0.0214
   5557 H            3.0913    -4.8585    21.9898 H      23     m23     0.0156
   5558 H            4.4121    -2.2883    22.3150 H      23     m23     0.0154
   5559 C            4.1687    -5.2038    22.0856 C      23     m23    -0.0161
   5560 C            4.2657    -5.3625    18.9201 C      10     m10     0.0002
   5561 C            4.3716    -3.8682    19.0760 C      10     m10    -0.0024
   5562 C            5.3207    -6.1131    19.5584 C      10     m10    -0.0112
   5563 C            5.1644    -3.1229    22.5254 C      23     m23    -0.0194
   5564 C            5.5397    -3.0282    19.2217 C      10     m10    -0.0167
   5565 C            5.3057    -4.3113    21.6528 C      23     m23    -0.0156
   5566 H            5.4995    -4.3313    20.7004 H      23     m23     0.0224
   5567 H            6.5307    -3.6821    19.5804 H      10     m10     0.0131
   5568 C            7.4294    -6.5475    19.2916 C      10     m10    -0.0202
   5569 H            7.8441    -2.0563    20.2755 H      30     m30     0.0164
   5570 H            7.4394    -5.8278    18.4437 H      10     m10     0.0166
   5571 H            7.9176    -3.6826    22.3024 H      30     m30     0.0185
   5572 C            8.5128    -2.2542    21.0356 C      30     m30    -0.0238
   5573 C            8.6936    -3.5743    21.5969 C      30     m30    -0.0124
   5574 H           10.0406    -5.4383    22.0758 H      30     m30     0.0165
   5575 C            9.7272    -4.4184    21.6002 C      30     m30    -0.0117
   5576 C           10.4885    -4.4106    20.2310 C      30     m30     0.0026
   5577 C           10.6579    -3.0099    19.9638 C      30     m30     0.0005
   5578 H           10.7309    -6.5347    20.6293 H      30     m30     0.0152
   5579 C           11.4605    -2.8186    18.8161 C      30     m30    -0.0022
   5580 C           11.4071    -5.5199    20.3319 C      30     m30    -0.0167
   5581 C           12.4182    -3.8183    18.6865 C      30     m30     0.0024
   5582 C           12.5469    -3.1178    22.3809 C      24     m24     0.0003
   5583 C           12.5133    -4.9823    19.5437 C      30     m30    -0.0144
   5584 H           13.0602    -5.9118    19.5282 H      30     m30     0.0164
   5585 C           13.7666    -3.1078    21.8274 C      24     m24     0.0009
   5586 C           13.8509    -5.4883    22.5325 C      24     m24    -0.0175
   5587 H           14.1776    -6.2531    21.9364 H      24     m24     0.0189
   5588 C           14.7469    -4.2576    21.9812 C      24     m24     0.0018
   5589 C           15.8558    -4.2384    21.1834 C      24     m24    -0.0233
   5590 H           16.4533    -4.9683    20.9768 H      24     m24     0.0185
   5591 C           16.1474    -3.0245    20.5029 C      24     m24    -0.0128
   5592 H           17.2481    -2.8956    20.0100 H      24     m24     0.0142
   5593 H           17.8239    -3.2913    22.1647 H      16     m16     0.0195
   5594 H           17.5161    -6.0293    19.2322 H      22     m22     0.0135
   5595 C           18.3635    -5.4606    19.4825 C      22     m22    -0.0218
   5596 H          -17.3557    -1.4077    22.1793 H      16     m16     0.0204
   5597 H          -17.9864     1.1791    20.0985 H      16     m16     0.0134
   5598 H          -17.9207     1.2141    21.9457 H      16     m16     0.0200
   5599 C          -16.9463     0.9254    21.5873 C      16     m16    -0.0197
   5600 C          -16.8566     0.9948    20.2593 C      16     m16    -0.0116
   5601 C          -15.7572     0.8154    22.2846 C      16     m16     0.0016
   5602 C          -15.5826     0.9512    19.4811 C      16     m16    -0.0202
   5603 H          -15.9745     0.4916    18.4230 H      16     m16     0.0127
   5604 C          -14.6899     0.3182    21.6536 C      16     m16    -0.0030
   5605 C          -14.5029     0.2533    20.1377 C      16     m16     0.0017
   5606 C          -13.4853    -0.7383    19.6031 C      16     m16    -0.0189
   5607 C          -13.8652    -0.3395    22.4949 C      16     m16    -0.0023
   5608 H          -13.4660    -0.7143    18.6411 H      16     m16     0.0207
   5609 C          -12.7118    -1.0035    22.1659 C      16     m16    -0.0001
   5610 C          -12.6046    -0.9834    20.5179 C      16     m16    -0.0145
   5611 H          -10.4871     1.2687    20.2762 H       9      m9     0.0160
   5612 H          -11.9392    -0.1633    20.4811 H      16     m16     0.0178
   5613 H          -11.2337    -2.3107    22.2486 H      16     m16     0.0158
   5614 C           -9.5364     1.3298    22.1407 C       9      m9    -0.0053
   5615 H           -9.1298     2.3712    18.4256 H       9      m9     0.0153
   5616 C           -8.4507     1.6612    21.2427 C       9      m9    -0.0041
   5617 H           -8.2735    -0.1688    18.3864 H      11     m11     0.0137
   5618 C           -7.6424     0.4756    21.0097 C       9      m9    -0.0198
   5619 H           -7.5162     0.0497    20.0059 H       9      m9     0.0149
   5620 C           -7.2563    -0.2898    22.2715 C       9      m9    -0.0196
   5621 H           -4.8181     1.4760    22.5643 H       2      m2     0.0172
   5622 C           -4.5469     0.0832    18.5180 C       2      m2    -0.0181
   5623 H           -4.6136    -0.9695    18.7522 H       2      m2     0.0171
   5624 C           -3.8500     1.1333    22.3766 C       2      m2    -0.0203
   5625 C           -3.4904     0.7980    21.0115 C       2      m2    -0.0153
   5626 H           -3.2035     1.8414    20.9151 H       2      m2     0.0185
   5627 C           -3.2423     0.6569    18.3802 C       2      m2     0.0022
   5628 C           -2.5912    -0.2724    20.5264 C       2      m2     0.0002
   5629 C           -2.5835    -1.1919    21.7911 C       2      m2    -0.0000
   5630 C           -2.1291    -0.1327    19.0685 C       2      m2    -0.0052
   5631 C           -0.9096     0.5409    18.6951 C       2      m2    -0.0042
   5632 C            0.3499     0.7746    19.4500 C       2      m2     0.0007
   5633 H            0.5936    -1.3513    19.3904 H       2      m2     0.0229
   5634 C            1.1163    -0.4433    19.8320 C       2      m2    -0.0192
   5635 C            1.0996     1.9290    18.8633 C       2      m2    -0.0055
   5636 C            2.4713     0.0576    20.0637 C       2      m2     0.0090
   5637 H            2.9110    -1.7905    21.5997 H       2      m2     0.0158
   5638 C            2.9232     1.4948    20.0739 C       2      m2    -0.0029
   5639 C            3.1182    -0.7099    21.2389 C       2      m2    -0.0204
   5640 C            4.2972     1.7079    20.2356 C       2      m2     0.0026
   5641 C            4.4463    -0.5820    21.0120 C       2      m2    -0.0124
   5642 C            4.8459    -0.7825    18.3147 C      10     m10     0.0048
   5643 H            5.5517    -1.0301    21.5018 H       2      m2     0.0145
   5644 C            5.2877     0.7442    20.5917 C       2      m2    -0.0018
   5645 C            5.6479    -1.6700    19.0845 C      10     m10    -0.0185
   5646 H            6.0998     0.7970    18.7410 H      10     m10     0.0178
   5647 H            6.6671    -1.5061    19.1040 H      10     m10     0.0145
   5648 C            6.8231     0.9429    20.6934 C       2      m2    -0.0206
   5649 H            7.3421     0.3398    19.8886 H       2      m2     0.0133
   5650 C            9.8359    -2.0201    20.4641 C      30     m30     0.0052
   5651 C           10.3003    -0.6675    20.0468 C      30     m30    -0.0146
   5652 H           10.2979     0.3702    20.6117 H      30     m30     0.0135
   5653 C           11.1829    -0.3428    18.9846 C      30     m30    -0.0188
   5654 H           11.3990     0.7524    18.5509 H      30     m30     0.0142
   5655 H           11.6906     0.2123    22.1158 H      24     m24     0.0151
   5656 C           11.6065    -1.8635    22.2381 C      24     m24     0.0044
   5657 C           12.1176    -1.3947    18.6875 C      30     m30     0.0059
   5658 C           12.1318    -0.6311    21.6542 C      24     m24    -0.0206
   5659 C           13.4147    -0.7841    21.0228 C      24     m24     0.0018
   5660 H           14.0404     0.4696    18.9801 H      24     m24     0.0198
   5661 C           14.2575    -1.7548    21.2754 C      24     m24     0.0001
   5662 C           14.3459     1.2516    19.6461 C      24     m24    -0.0230
   5663 C           14.3445     0.5390    20.8850 C      24     m24    -0.0047
   5664 C           14.4198     1.3555    22.2182 C      24     m24     0.0032
   5665 C           15.5811    -1.9165    21.2576 C      24     m24    -0.0172
   5666 H           15.8604    -1.0580    20.8388 H      24     m24     0.0201
   5667 C           17.5555     0.1666    18.5198 C       1      m1    -0.0342
   5668 H           17.8921    -0.2310    19.4940 H       1      m1     0.0151
   5669 C           17.4461    -2.2347    22.4843 C      16     m16    -0.0132
   5670 H           17.2883     1.1814    18.8157 H       1      m1     0.0211
   5671 C          -16.8399     6.4254    19.0664 C       1      m1    -0.0015
   5672 C          -16.8275     5.1721    18.1417 C       1      m1    -0.0021
   5673 C          -16.8390     6.5802    20.5536 C       1      m1    -0.0001
   5674 C          -16.4555     5.3808    21.2681 C       1      m1    -0.0034
   5675 C          -16.1724     4.1575    18.9884 C       1      m1    -0.0196
   5676 C          -16.1601     4.3001    20.4150 C       1      m1     0.0069
   5677 C          -16.1320     5.6213   -22.5997 C       1      m1     0.0059
   5678 H          -15.7216     3.2235    18.5559 H       1      m1     0.0179
   5679 C          -15.3541     3.2362    21.1254 C       1      m1    -0.0166
   5680 H          -14.6835     2.4255    20.7779 H       1      m1     0.0225
   5681 C          -14.7778     3.6275    22.3488 C       1      m1    -0.0081
   5682 C          -13.4924     6.6218    18.7424 C       9      m9     0.0078
   5683 C          -13.1554     5.9235    20.0647 C       9      m9     0.0020
   5684 C          -12.9060     6.1979    22.4560 C       9      m9    -0.0130
   5685 C          -12.3519     3.8426    19.1519 C       9      m9     0.0025
   5686 C          -12.1481     4.9671    20.1558 C       9      m9     0.0022
   5687 C          -11.9000     4.2688    21.5962 C       9      m9     0.0047
   5688 C          -11.5716     2.6696    19.0537 C       9      m9    -0.0176
   5689 C          -11.2503     2.1899    20.3247 C       9      m9    -0.0128
   5690 C          -11.2471     2.9874    21.4254 C       9      m9     0.0018
   5691 C          -10.5718     2.3777    22.6704 C       9      m9    -0.0017
   5692 C           -8.8540     3.1717    19.1096 C       9      m9    -0.0214
   5693 C           -9.0099     4.4913    18.5150 C       9      m9     0.0051
   5694 C           -9.0146     5.6366    19.5418 C       9      m9    -0.0031
   5695 C           -8.7329     5.8110    20.9483 C       9      m9     0.0021
   5696 C           -8.6257     3.0949    20.4970 C       9      m9     0.0039
   5697 C           -8.4925     4.3278    21.1792 C       9      m9    -0.0189
   5698 H           -7.8931     4.1329    22.1321 H       9      m9     0.0158
   5699 H           -7.0392     6.6566    19.5847 H       4      m4     0.0223
   5700 H           -6.4444     4.8219    19.5499 H       4      m4     0.0217
   5701 C           -5.9431     6.6861    19.4987 C       4      m4    -0.0185
   5702 C           -5.5374     5.2342    19.6065 C       4      m4    -0.0234
   5703 H           -4.4511     5.4703    21.8961 H       2      m2     0.0183
   5704 C           -3.9840     5.3499    19.8660 C       4      m4     0.0048
   5705 H           -4.1459     3.3041    20.5028 H       4      m4     0.0162
   5706 C           -3.4013     4.0944    20.1493 C       4      m4    -0.0181
   5707 C           -3.2130     6.7504    19.7188 C       4      m4    -0.0022
   5708 C           -2.0248     3.8135    19.5462 C       4      m4    -0.0096
   5709 C           -1.7969     6.5299    19.7909 C       4      m4     0.0006
   5710 H           -1.3336     2.8537    19.6177 H       4      m4     0.0183
   5711 C           -1.4470     4.9704    19.6548 C       4      m4    -0.0171
   5712 H           -0.4196     5.0775    19.3193 H       4      m4     0.0165
   5713 H            1.9224     4.6353    21.9335 H       1      m1     0.0193
   5714 H            1.5202     1.6708    22.4234 H       1      m1     0.0168
   5715 C            2.1919     2.3655    19.4825 C       2      m2     0.0026
   5716 H            2.5754     4.3078    18.0589 H       2      m2     0.0128
   5717 C            2.8251     3.6961    18.9634 C       2      m2    -0.0176
   5718 C            3.8693     4.0165    19.9550 C       2      m2    -0.0208
   5719 H            4.1162     4.9545    20.2081 H       2      m2     0.0188
   5720 C            4.6923     3.0835    20.6575 C       2      m2     0.0032
   5721 C            6.1153     3.2571    21.1316 C       2      m2    -0.0182
   5722 H            6.2930     4.3556    21.1358 H       2      m2     0.0168
   5723 C            7.2157     2.2951    21.0862 C       2      m2    -0.0145
   5724 H            7.9429     2.5387    21.9304 H       2      m2     0.0144
   5725 H           10.3221     3.4019    18.6034 H       1      m1     0.0140
   5726 C           11.5925     3.3766    18.5502 C       1      m1    -0.0108
   5727 C           11.4966     3.3243    20.0033 C       1      m1    -0.0256
   5728 H           11.5590     2.4960    20.5549 H       1      m1     0.0186
   5729 C           12.2837     3.7944    22.2682 C       1      m1    -0.0209
   5730 C           12.1143     4.3187    20.8717 C       1      m1     0.0065
   5731 C           12.1311     5.8649    18.8107 C       1      m1     0.0021
   5732 C           12.3146     5.6122    20.2907 C       1      m1    -0.0014
   5733 C           12.9808     6.6491    21.2772 C       1      m1    -0.0007
   5734 C           13.4944     5.9865    22.5825 C       1      m1     0.0024
   5735 C           14.7303     2.6357    19.7331 C      24     m24     0.0062
   5736 C           15.2953     2.5049    22.0967 C      24     m24    -0.0040
   5737 C           15.3576     3.4361    18.6930 C      24     m24    -0.0173
   5738 C           15.6117     3.0208    20.7938 C      24     m24    -0.0009
   5739 C           16.7298     3.8235    20.6517 C      24     m24     0.0062
   5740 C           16.7563     3.6970    18.3593 C      24     m24    -0.0184
   5741 C           17.0535     4.3677    19.3944 C      24     m24    -0.0142
   5742 C           17.4072     4.2580    21.8486 C      24     m24    -0.0212
   5743 H           17.9022     4.9791    19.2063 H      24     m24     0.0219
   5744 H           17.9356     5.0448    21.8857 H      24     m24     0.0222
   5745 C          -17.6096     7.4440    18.3380 C       1      m1     0.0026
   5746 C          -17.6906     8.9287    18.7991 C       1      m1    -0.0322
   5747 C          -16.9546     7.8430    21.0748 C       1      m1    -0.0025
   5748 C          -17.0891     9.0216    20.2393 C       1      m1     0.0085
   5749 C          -16.7684    10.2730    20.7489 C       1      m1    -0.0227
   5750 C          -16.8073     7.8524    22.5129 C       1      m1     0.0009
   5751 C          -16.8073    10.3136    22.1653 C       1      m1     0.0029
   5752 H          -16.7362    11.3333    20.3964 H       1      m1     0.0218
   5753 H          -13.9113     8.7276    22.1448 H       9      m9     0.0190
   5754 C          -14.0540     8.0294    18.7220 C       9      m9    -0.0171
   5755 C          -13.9045    10.3988    19.6693 C       9      m9     0.0018
   5756 C          -14.0334     8.8691    19.8129 C       9      m9     0.0053
   5757 C          -13.7083     8.3202    21.1613 C       9      m9    -0.0191
   5758 H          -13.2466    11.1974    21.9433 H       9      m9     0.0155
   5759 C          -13.3211     6.8827    21.2447 C       9      m9     0.0063
   5760 H          -12.0064    10.2407    18.4854 H       9      m9     0.0189
   5761 C          -11.5040     9.1661    18.5704 C       9      m9    -0.0095
   5762 C          -10.4273     9.0773    19.5623 C       9      m9    -0.0179
   5763 H          -10.1914     9.9639    20.0728 H       9      m9     0.0170
   5764 C           -9.7616     6.5762    19.1953 C       9      m9     0.0008
   5765 C           -9.7879     7.7832    19.9561 C       9      m9     0.0059
   5766 C           -8.6605     8.2336    20.6719 C       9      m9    -0.0153
   5767 H           -8.7102     9.4139    21.0239 H       9      m9     0.0128
   5768 C           -7.9736     7.0662    21.1887 C       9      m9    -0.0238
   5769 H           -7.0950     6.9942    21.7630 H       9      m9     0.0208
   5770 H           -6.3137    10.2208    20.4336 H       4      m4     0.0189
   5771 C           -6.2790     9.9848    19.3499 C       4      m4    -0.0223
   5772 C           -5.5786     9.0166    18.6328 C       4      m4     0.0057
   5773 C           -5.0980     7.7449    19.5280 C       4      m4     0.0004
   5774 C           -3.6755     8.0273    19.5473 C       4      m4    -0.0021
   5775 C           -2.8870    10.8396    21.6890 C       4      m4     0.0006
   5776 C           -2.9199    10.7014    20.1479 C       4      m4    -0.0009
   5777 C           -2.6194     9.2268    19.6971 C       4      m4    -0.0154
   5778 C           -2.5412     9.9475    22.5739 C       4      m4    -0.0154
   5779 H           -2.6818     9.3307    18.5366 H       4      m4     0.0205
   5780 H           -2.1227     8.8808    22.2202 H       4      m4     0.0176
   5781 C           -1.3118     8.7701    20.3661 C       4      m4    -0.0133
   5782 C           -0.8749     7.3669    20.6370 C       4      m4    -0.0217
   5783 H           -0.8070     9.9211    20.1718 H       4      m4     0.0137
   5784 H           -0.8595     6.9203    21.6737 H       4      m4     0.0165
   5785 H            1.7809     8.6669    21.9816 H       1      m1     0.0173
   5786 H            2.0313     9.9391    20.1141 H       4      m4     0.0157
   5787 C            2.0641    10.6977    19.2693 C       4      m4    -0.0205
   5788 C            2.7264     8.2614    22.2680 C       1      m1    -0.0206
   5789 C            3.8936     8.6346    21.5466 C       1      m1    -0.0066
   5790 C            4.2156     9.8723    18.3509 C       4      m4    -0.0200
   5791 H            4.3481     9.3813    19.3457 H       4      m4     0.0165
   5792 C            5.3561     8.3307    21.8035 C       1      m1    -0.0024
   5793 C            5.3952     7.1221   -22.7147 C       1      m1     0.0023
   5794 H            6.2071     9.0030    19.4134 H       1      m1     0.0182
   5795 C            6.6429     8.8187    21.5614 C       1      m1    -0.0073
   5796 C            7.2123     9.2275    18.7292 C       1      m1    -0.0184
   5797 C            7.6091     8.4820    20.3412 C       1      m1    -0.0023
   5798 C            9.0140     7.9299    20.2773 C       1      m1    -0.0148
   5799 C            8.7767     9.2642   -22.6646 C       1      m1    -0.0239
   5800 C            9.4323     8.4189    21.5829 C       1      m1    -0.0138
   5801 H            9.6432     7.1945    19.3735 H       1      m1     0.0144
   5802 H           10.1334     9.0487    18.1136 H       1      m1     0.0228
   5803 H           10.4377     8.2430    21.7710 H       1      m1     0.0186
   5804 H           12.6238    11.2406    21.0240 H       1      m1     0.0130
   5805 C           12.2586     7.3167    18.4535 C       1      m1    -0.0044
   5806 C           12.6311     8.2641    19.4793 C       1      m1    -0.0237
   5807 H           12.4033     9.0731    18.8994 H       1      m1     0.0174
   5808 C           13.0122     7.9769    20.8685 C       1      m1     0.0032
   5809 C           14.1615     8.5597    21.6015 C       1      m1    -0.0222
   5810 H           14.7460     9.4566    21.3356 H       1      m1     0.0152
   5811 C           14.7227     7.6412    22.5970 C       1      m1    -0.0127
   5812 H           18.0862     9.3655    18.4912 H       1      m1     0.0131
   5813 H          -18.3029    13.5766    18.1580 H       1      m1     0.0163
   5814 C          -18.4086    12.6465    21.6176 C       1      m1    -0.0001
   5815 C          -18.1010    13.3666    19.2628 C       1      m1    -0.0180
   5816 C          -17.4269    11.7791    22.4237 C       1      m1    -0.0088
   5817 C          -16.9545    14.2935    19.7651 C       1      m1     0.0064
   5818 H          -16.9902    14.0041    21.5699 H       1      m1     0.0273
   5819 C          -16.0498    14.3590    18.5908 C       1      m1     0.0032
   5820 C          -16.1345    14.2599    21.1565 C       1      m1    -0.0414
   5821 H          -15.2857    13.5785    21.3805 H       1      m1     0.0220
   5822 C          -15.2680    15.4789    18.4735 C       1      m1     0.0036
   5823 C          -14.0133    11.0958    18.5015 C       9      m9    -0.0272
   5824 C          -13.2852    11.2944    20.7559 C       9      m9    -0.0190
   5825 C          -12.4501    12.3539    20.4935 C       9      m9     0.0046
   5826 H          -11.5511    12.4588   -22.5514 H       9      m9     0.0160
   5827 C          -12.4005    12.6675    19.0789 C       9      m9    -0.0031
   5828 C          -11.7312    12.6803    21.7972 C       9      m9    -0.0203
   5829 C          -11.1774    13.9667    21.6484 C       9      m9    -0.0226
   5830 C          -11.3809    13.7236    18.8584 C       9      m9    -0.0026
   5831 H          -11.2239    14.5512    22.4674 H       9      m9     0.0179
   5832 C          -10.8547    14.3416    20.2875 C       9      m9     0.0076
   5833 H           -8.8334    10.9956   -22.7108 H       2      m2     0.0140
   5834 H           -8.2754    13.5034    22.1799 H       2      m2     0.0135
   5835 H           -7.8984    12.3976    19.3461 H       4      m4     0.0158
   5836 C           -7.2103    12.2001    18.4196 C       4      m4    -0.0151
   5837 C           -6.8058    15.1983    22.1137 C       2      m2    -0.0156
   5838 C           -6.5015    10.9334    18.2787 C       4      m4     0.0043
   5839 H           -6.2326    14.6792    21.2241 H       2      m2     0.0190
   5840 H           -5.9034    14.5269    18.5534 H       4      m4     0.0176
   5841 C           -4.3631    15.5516    20.1322 C       4      m4     0.0000
   5842 C           -3.7054    14.6115    21.1403 C       4      m4    -0.0058
   5843 C           -3.6926    13.1903    20.7615 C       4      m4    -0.0027
   5844 C           -3.2760    12.2167    21.9459 C       4      m4    -0.0023
   5845 C           -3.5731    14.9186    22.4565 C       4      m4    -0.0197
   5846 C           -3.3791    12.8745    19.3801 C       4      m4    -0.0124
   5847 H           -2.9045    13.8636    19.1874 H       4      m4     0.0194
   5848 C           -2.6074    11.5570    18.9650 C       4      m4    -0.0172
   5849 H           -1.5700    11.3765    18.9421 H       4      m4     0.0167
   5850 H           -1.5960    16.0349    22.4316 H       4      m4     0.0155
   5851 H           -0.7216    14.1217    20.6965 H       4      m4     0.0191
   5852 C            0.0431    14.6095    20.1430 C       4      m4    -0.0240
   5853 C            0.3841    14.9800    18.7042 C       4      m4     0.0020
   5854 H            0.1611    11.5612    19.4503 H       4      m4     0.0145
   5855 C            0.4998    15.4468    21.3400 C       4      m4     0.0070
   5856 C            1.0785    11.6319    18.7982 C       4      m4    -0.0147
   5857 H            1.5605    13.0275    22.1530 H      25     m25     0.0166
   5858 H            2.8538    15.2697    21.1433 H       4      m4     0.0176
   5859 H            3.8514    11.4753    22.1191 H      25     m25     0.0148
   5860 H            4.7413    15.1418   -22.4494 H      21     m21     0.0145
   5861 C            7.7237    15.5320    20.9795 C       1      m1    -0.0215
   5862 C            8.0416    15.0693    19.7564 C       1      m1     0.0043
   5863 C            8.2640    14.7441    22.0348 C       1      m1    -0.0134
   5864 C            9.1322    14.1105    19.3110 C       1      m1    -0.0024
   5865 C            9.1477    13.6135    21.7554 C       1      m1     0.0007
   5866 C            9.8316    13.4361    20.2844 C       1      m1     0.0038
   5867 H           10.4520    11.3272    19.6289 H       1      m1     0.0178
   5868 C           10.5348    12.1426    20.2389 C       1      m1    -0.0195
   5869 C           11.7868    12.2594    21.0714 C       1      m1    -0.0129
   5870 H           11.8636    15.1941    21.2741 H       1      m1     0.0206
   5871 C           12.2438    12.9381    22.2728 C       1      m1     0.0017
   5872 H           13.6213    11.0103    18.5746 H       1      m1     0.0137
   5873 C           13.7668    13.0897    22.2717 C       1      m1    -0.0188
   5874 H           14.2558    13.2660    21.1884 H       1      m1     0.0157
   5875 C           15.5531    14.3365    18.3403 C       1      m1    -0.0013
   5876 C           16.3809    15.5635    18.8146 C       1      m1    -0.0020
   5877 H           17.0274    13.8876    21.7775 H       1      m1     0.0188
   5878 H           17.2271    12.8990    17.9444 H       1      m1     0.0115
   5879 H           17.5265    11.9726    19.3993 H       1      m1     0.0161
   5880 C           17.8226    13.7280    22.3635 C       1      m1    -0.0253
   5881 C           17.9021    15.4550    18.3687 C       1      m1    -0.0045
   5882 H           17.9808    15.8016    20.3963 H       1      m1     0.0179
   5883 C           18.1277    12.5781    20.0580 C       1      m1    -0.0201
   5884 C          -18.3400    18.6284    21.3495 C       1      m1    -0.0222
   5885 C          -18.1464    15.5839    19.6017 C       1      m1    -0.0159
   5886 C          -17.8450    17.7837    20.4233 C       1      m1    -0.0018
   5887 C          -17.4704    17.0056    19.3127 C       1      m1     0.0014
   5888 C          -17.3525    19.7909    21.8352 C       1      m1    -0.0089
   5889 C          -15.8644    19.3323    21.2321 C       1      m1    -0.0143
   5890 C          -15.3790    15.5139    21.2333 C       1      m1     0.0042
   5891 H          -15.2317    19.0266    21.9733 H       1      m1     0.0230
   5892 C          -14.9278    15.9913    22.4012 C       1      m1    -0.0030
   5893 C          -14.6585    15.9671    19.8947 C       1      m1     0.0000
   5894 H          -14.6998   -19.8028    19.0486 H       1      m1     0.0157
   5895 C          -13.6586    16.7556    19.1700 C       1      m1    -0.0142
   5896 H          -12.8081    17.6267    21.1877 H       1      m1     0.0184
   5897 C          -13.3044    17.9141    22.1202 C       1      m1    -0.0161
   5898 H          -12.5702    16.3559    19.5800 H       1      m1     0.0170
   5899 C          -12.1739    18.7714    22.4112 C       1      m1    -0.0215
   5900 H          -11.1803    19.0149    21.8992 H       1      m1     0.0149
   5901 C          -10.0524    15.4137    20.2220 C       9      m9    -0.0242
   5902 H           -9.4845    15.9369    20.9156 H       9      m9     0.0207
   5903 C           -9.5310    15.6959    18.8787 C       9      m9    -0.0123
   5904 H           -9.4572    16.6878    18.1951 H       9      m9     0.0115
   5905 H           -7.8925    17.3028    17.7707 H       4      m4     0.0158
   5906 C           -6.9456    19.2925    22.4192 C       2      m2     0.0027
   5907 H           -6.4795    18.3582    20.3549 H       2      m2     0.0168
   5908 C           -6.0034    16.4203    22.7128 C       2      m2     0.0004
   5909 C           -6.1697    18.4731    21.4568 C       2      m2    -0.0200
   5910 C           -5.5997    16.8527    18.2396 C       4      m4     0.0019
   5911 C           -5.2858    17.5708    22.1547 C       2      m2    -0.0143
   5912 C           -5.4480    15.5987    19.1464 C       4      m4    -0.0178
   5913 H           -4.0965    17.5662    22.0197 H       2      m2     0.0108
   5914 H           -3.5900   -19.9142    19.8551 H       1      m1     0.0124
   5915 H           -3.1594    17.0849    20.6658 H       4      m4     0.0161
   5916 C           -2.9638    16.5505    18.2558 C       4      m4     0.0026
   5917 C           -3.0421    16.3459    19.7786 C       4      m4    -0.0309
   5918 H           -2.2962    15.4066    20.0043 H       4      m4     0.0194
   5919 H           -1.7765    19.0846    18.7696 H       1      m1     0.0187
   5920 C           -0.5539    16.2372    18.2397 C       4      m4    -0.0102
   5921 C           -0.4953    15.8716    22.4230 C       4      m4    -0.0200
   5922 H           -0.2084    19.1772    19.8025 H       4      m4     0.0152
   5923 C            0.0717    16.9632    19.1573 C       4      m4    -0.0002
   5924 C            0.5031    18.2660    19.7484 C       4      m4    -0.0150
   5925 C            1.9629    15.7485    21.5370 C       4      m4    -0.0206
   5926 C            1.8983    18.6071    20.0697 C       4      m4    -0.0202
   5927 H            2.7653    19.2047    19.8259 H       4      m4     0.0162
   5928 C            2.3122    17.1428    21.9775 C       4      m4     0.0015
   5929 C            2.3671    19.7539    22.5368 C       4      m4    -0.0250
   5930 C            2.1936    18.7335    21.5291 C       4      m4     0.0003
   5931 H            5.5947    16.9245    20.8636 H      21     m21     0.0167
   5932 C            5.4994    17.0371    21.7978 C      21     m21    -0.0199
   5933 C            5.8542    18.3955    22.1233 C      21     m21    -0.0170
   5934 H            5.9085    19.1410    21.2842 H      21     m21     0.0133
   5935 H            7.3195    16.5291    21.3260 H       1      m1     0.0182
   5936 H            7.6191    17.1074    19.3362 H       1      m1     0.0163
   5937 C            7.9090    16.0347    18.6366 C       1      m1    -0.0114
   5938 C            8.7924    19.4679    18.7929 C       1      m1    -0.0264
   5939 C            9.5149    18.1954    18.8540 C       1      m1    -0.0171
   5940 C            9.4684    18.3204    21.4293 C       1      m1    -0.0046
   5941 C            9.7488    19.7079    21.1980 C       1      m1    -0.0040
   5942 C           10.0075    17.8751    20.0569 C       1      m1     0.0044
   5943 C           10.8787    16.6640    20.1694 C       1      m1    -0.0124
   5944 C           10.8053    16.5887    22.6406 C       1      m1    -0.0015
   5945 C           11.2600    16.1635    21.3537 C       1      m1    -0.0125
   5946 H           11.1155    16.5117    18.9701 H       1      m1     0.0217
   5947 C           13.2138    17.9699    18.7221 C       1      m1    -0.0227
   5948 H           13.2680    18.7422    19.3262 H       1      m1     0.0179
   5949 H           13.4667    16.1718    22.2163 H       1      m1     0.0179
   5950 C           14.0691    16.6724    18.8591 C       1      m1     0.0043
   5951 H           14.6929    18.6119    20.6548 H       6      m6     0.0201
   5952 H           15.4668    17.7425    22.2457 H       6      m6     0.0206
   5953 C           15.0328    18.5808    21.7150 C       6      m6    -0.0438
   5954 C           14.8028    19.6823    22.5761 C       6      m6     0.0073
   5955 C           15.4353    16.4820    19.3736 C       1      m1    -0.0283
   5956 H           15.9993    17.2264    19.4802 H       1      m1     0.0215
   5957 H           17.6390    18.3016    21.8623 H       1      m1     0.0157
   5958 B           18.4278   -19.9262    22.7236 B      33     BOX     0.0000
   5959 B          -18.4278   -19.9262    22.7236 B      33     BOX     0.0000
   5960 B          -18.4278    19.9262    22.7236 B      33     BOX     0.0000
   5961 B           18.4278    19.9262    22.7236 B      33     BOX     0.0000
   5962 B           18.4278   -19.9262   -22.7236 B      33     BOX     0.0000
   5963 B          -18.4278   -19.9262   -22.7236 B      33     BOX     0.0000
   5964 B          -18.4278    19.9262   -22.7236 B      33     BOX     0.0000
   5965 B           18.4278    19.9262   -22.7236 B      33     BOX     0.0000
@<TRIPOS>BOND
     1      1    561      1
     2      2     82      1
     3      3      6      1
     4      4     83      1
     5      6      7      1
     6      7      8      1
     7      7      9      1
     8      9     10      1
     9     11     12      1
    10     12     87      1
    11     13     14      1
    12     14     16      1
    13     15     18      1
    14     15    637      1
    15     16     17      1
    16     16     19      1
    17     20     22      1
    18     21     23      1
    19     22     23      1
    20     22    105      1
    21     23    107      1
    22     26     28      1
    23     26    114      1
    24     26    648      1
    25     27   5343      1
    26     29     31      1
    27     30     32      1
    28     31     32      1
    29     31     33      1
    30     32     35      1
    31     33     37      1
    32     33    712      1
    33     34     36      1
    34     35     36      1
    35     35     38      1
    36     36   5356      1
    37     37     38      1
    38     37     40      1
    39     38     42      1
    40     39     41      1
    41     40     44      1
    42     40    652      1
    43     42     45      1
    44     42     48      1
    45     43     46      1
    46     44     48      1
    47     44     49      1
    48     45     47      1
    49     45     51      1
    50     46     50      1
    51     48     52      1
    52     51     52      1
    53     52    126      1
    54     53    661      1
    55     54     55      1
    56     56     57      1
    57     57     58      1
    58     57     61      1
    59     58     59      1
    60     58    665      1
    61     59     63      1
    62     59    667      1
    63     61     64      1
    64     62   5378      1
    65     63     64      1
    66     64     66      1
    67     65     67      1
    68     67    142      1
    69     67    733      1
    70     68     69      1
    71     69     70      1
    72     69    142      1
    73     69    144      1
    74     71    144      1
    75     72     76      1
    76     73     77      1
    77     74     75      1
    78     74     76      1
    79     74    739      1
    80     76     78      1
    81     77     78      1
    82     77     79      1
    83     78     80      1
    84     81    151      1
    85     82     83      1
    86     82     84      1
    87     83     85      1
    88     84     87      1
    89     85     88      1
    90     85    684      1
    91     86   5394      1
    92     87     88      1
    93     88     90      1
    94     89     91      1
    95     89    684      1
    96     89    685      1
    97     90     91      1
    98     90     93      1
    99     91     95      1
   100     92   5399      1
   101     93     94      1
   102     94     96      1
   103     95     96      1
   104     95    154      1
   105     96    155      1
   106     97     98      1
   107     98    100      1
   108     98    102      1
   109     99    101      1
   110    100    103      1
   111    100    693      1
   112    101    102      1
   113    102    104      1
   114    103    105      1
   115    103    694      1
   116    104    105      1
   117    104    106      1
   118    106    107      1
   119    108    109      1
   120    109    162      1
   121    109    166      1
   122    110   5416      1
   123    111    166      1
   124    112    113      1
   125    113    115      1
   126    114    115      1
   127    114    116      1
   128    116    117      1
   129    116    708      1
   130    117    118      1
   131    117    119      1
   132    118    120      1
   133    118    710      1
   134    122    718      1
   135    123    124      1
   136    124    125      1
   137    124    126      1
   138    125    127      1
   139    125    723      1
   140    126    128      1
   141    127    129      1
   142    127    788      1
   143    128    129      1
   144    128    130      1
   145    129    131      1
   146    130    132      1
   147    130    133      1
   148    131    133      1
   149    131    134      1
   150    133    135      1
   151    134    136      1
   152    134    792      1
   153    135    137      1
   154    135    138      1
   155    136    138      1
   156    136    139      1
   157    138    140      1
   158    141    144      1
   159    142    145      1
   160    143    145      1
   161    143    735      1
   162    146    148      1
   163    146    210      1
   164    147    148      1
   165    148    212      1
   166    150    153      1
   167    152   5466      1
   168    152   5469      1
   169    153    218      1
   170    153    755      1
   171    156    158      1
   172    157    159      1
   173    158    159      1
   174    158    161      1
   175    159    163      1
   176    160    162      1
   177    161    164      1
   178    161    230      1
   179    162    163      1
   180    163    165      1
   181    164    165      1
   182    164    234      1
   183    165    167      1
   184    166    167      1
   185    167    168      1
   186    168    170      1
   187    170    171      1
   188    171    172      1
   189    171    773      1
   190    173   5488      1
   191    174    175      1
   192    175    179      1
   193    175   5488      1
   194    176    835      1
   195    177    247      1
   196    178    180      1
   197    179    182      1
   198    180    247      1
   199    180    252      1
   200    181    182      1
   201    182    183      1
   202    183    187      1
   203    184    185      1
   204    184    252      1
   205    184    256      1
   206    186    188      1
   207    187    188      1
   208    187    192      1
   209    188    191      1
   210    189    191      1
   211    190    191      1
   212    191    194      1
   213    192    193      1
   214    193    194      1
   215    193    195      1
   216    194    197      1
   217    195    199      1
   218    196    197      1
   219    197    198      1
   220    198    199      1
   221    198    200      1
   222    201    202      1
   223    202    205      1
   224    202    266      1
   225    203    206      1
   226    204    205      1
   227    205    207      1
   228    206    207      1
   229    206    208      1
   230    209    211      1
   231    210    213      1
   232    211    213      1
   233    211    214      1
   234    212    215      1
   235    213    215      1
   236    215    216      1
   237    217    218      1
   238    218    220      1
   239    219    220      1
   240    220    221      1
   241    221    222      1
   242    221    224      1
   243    222    225      1
   244    222    755      1
   245    223    224      1
   246    224    226      1
   247    225    227      1
   248    225    761      1
   249    226    227      1
   250    226    228      1
   251    227    229      1
   252    229    230      1
   253    229    764      1
   254    230    824      1
   255    231    234      1
   256    231    824      1
   257    231    828      1
   258    232    233      1
   259    232    235      1
   260    233    236      1
   261    234    238      1
   262    236    240      1
   263    236    311      1
   264    237    239      1
   265    239    240      1
   266    239    242      1
   267    240    315      1
   268    241   5551      1
   269    242    243      1
   270    242    246      1
   271    244    315      1
   272    245    246      1
   273    245    315      1
   274    245    317      1
   275    246    832      1
   276    247    248      1
   277    248    250      1
   278    249    250      1
   279    249    323      1
   280    250    251      1
   281    251    252      1
   282    251    253      1
   283    253    254      1
   284    253    255      1
   285    254    323      1
   286    254    326      1
   287    255    256      1
   288    255    841      1
   289    256    842      1
   290    257    258      1
   291    258    259      1
   292    258    335      1
   293    259    260      1
   294    259    261      1
   295    261    263      1
   296    262    263      1
   297    264    345      1
   298    265    266      1
   299    265    851      1
   300    268    269      1
   301    269    272      1
   302    270    271      1
   303    270    854      1
   304    271    272      1
   305    271    350      1
   306    272    273      1
   307    273    276      1
   308    274    858      1
   309    275    276      1
   310    276    277      1
   311    277    279      1
   312    278    279      1
   313    279    282      1
   314    280    283      1
   315    280    358      1
   316    280    862      1
   317    281    287      1
   318    282    285      1
   319    282    286      1
   320    283    287      1
   321    283    289      1
   322    284    289      1
   323    284    359      1
   324    286    288      1
   325    287    290      1
   326    289    291      1
   327    290    293      1
   328    290    871      1
   329    291    292      1
   330    291    293      1
   331    292    296      1
   332    293    294      1
   333    294    295      1
   334    294    297      1
   335    296    297      1
   336    297    299      1
   337    298   5620      1
   338    300    301      1
   339    300    304      1
   340    300    372      1
   341    301    303      1
   342    301    879      1
   343    302    304      1
   344    303    306      1
   345    303    821      1
   346    304    305      1
   347    305    306      1
   348    305    308      1
   349    306    307      1
   350    308    309      1
   351    308    310      1
   352    310    311      1
   353    311    312      1
   354    313    314      1
   355    313    378      1
   356    313    891      1
   357    315    316      1
   358    317    318      1
   359    317    893      1
   360    319    320      1
   361    319    321      1
   362    319    383      1
   363    321    322      1
   364    321    388      1
   365    323    324      1
   366    325    330      1
   367    326    328      1
   368    326    901      1
   369    327    329      1
   370    328    329      1
   371    328    331      1
   372    329    330      1
   373    330    332      1
   374    331    333      1
   375    331    903      1
   376    332    333      1
   377    332    399      1
   378    333    400      1
   379    334    335      1
   380    336    337      1
   381    337    340      1
   382    338    340      1
   383    339    341      1
   384    340    343      1
   385    341    342      1
   386    341    344      1
   387    342    346      1
   388    342    913      1
   389    343    414      1
   390    343    415      1
   391    344    345      1
   392    344    347      1
   393    346    348      1
   394    346    915      1
   395    347    348      1
   396    349    423      1
   397    349    917      1
   398    351    354      1
   399    351   5677      1
   400    353    356      1
   401    353    429      1
   402    353    993      1
   403    355    356      1
   404    355    358      1
   405    355    927      1
   406    356    357      1
   407    358    361      1
   408    360    362      1
   409    363    932      1
   410    364    933      1
   411    365    440      1
   412    366    367      1
   413    367    369      1
   414    367    373      1
   415    367    940      1
   416    368    370      1
   417    369    370      1
   418    369    372      1
   419    370    375      1
   420    371    374      1
   421    372    878      1
   422    373    376      1
   423    373   1012      1
   424    374    375      1
   425    374    377      1
   426    375    376      1
   427    376    451      1
   428    377    452      1
   429    378    379      1
   430    378    948      1
   431    380    381      1
   432    380    382      1
   433    380    463      1
   434    381    384      1
   435    382    385      1
   436    382    461      1
   437    383    384      1
   438    384    386      1
   439    385    386      1
   440    385    387      1
   441    386    388      1
   442    387    955      1
   443    387    956      1
   444    388    391      1
   445    389    390      1
   446    389    463      1
   447    389   5793      1
   448    391    392      1
   449    391    956      1
   450    393    469      1
   451    394    395      1
   452    395    396      1
   453    395    963      1
   454    396    397      1
   455    396    398      1
   456    397    401      1
   457    397    475      1
   458    400    402      1
   459    400    974      1
   460    401    403      1
   461    401    479      1
   462    404   5729      1
   463    405    408      1
   464    406    409      1
   465    407    410      1
   466    409    412      1
   467    409    980      1
   468    410    412      1
   469    410    413      1
   470    411    413      1
   471    412    416      1
   472    413    417      1
   473    414    421      1
   474    416    420      1
   475    416    984      1
   476    417    418      1
   477    417    419      1
   478    417    420      1
   479    421    422      1
   480    424    425      1
   481    424    426      1
   482    424    552      1
   483    425    430      1
   484    425    486      1
   485    427    431      1
   486    427   5677      1
   487    428    430      1
   488    430    432      1
   489    430    433      1
   490    434    435      1
   491    434    491      1
   492    434    996      1
   493    437    438      1
   494    437    497      1
   495    437   1000      1
   496    438    439      1
   497    438    443      1
   498    439    441      1
   499    439    442      1
   500    440    442      1
   501    440    445      1
   502    441    498      1
   503    441   5833      1
   504    442    444      1
   505    443    445      1
   506    443   1004      1
   507    445    446      1
   508    447    448      1
   509    447   1013      1
   510    447   1076      1
   511    449    450      1
   512    449   1012      1
   513    449   1013      1
   514    450    451      1
   515    450    453      1
   516    451    452      1
   517    452    454      1
   518    455    456      1
   519    455    509      1
   520    457   1021      1
   521    458    461      1
   522    459    460      1
   523    460    461      1
   524    460    955      1
   525    462    464      1
   526    462    518      1
   527    462    521      1
   528    464    465      1
   529    464   1024      1
   530    465    467      1
   531    465   1030      1
   532    466    467      1
   533    466    468      1
   534    466    521      1
   535    467    470      1
   536    469    472      1
   537    469   5793      1
   538    471    475      1
   539    471    963      1
   540    471   1033      1
   541    472    473      1
   542    472    474      1
   543    473   5799      1
   544    475    476      1
   545    476    478      1
   546    476   1038      1
   547    477   5799      1
   548    478    479      1
   549    478    480      1
   550    479    481      1
   551    480    482      1
   552    480   1041      1
   553    486    551      1
   554    487    489      1
   555    488   1059      1
   556    489    558      1
   557    490    491      1
   558    491   1062      1
   559    492    493      1
   560    493    495      1
   561    493   1066      1
   562    493   1069      1
   563    494    495      1
   564    495    497      1
   565    495    499      1
   566    496    498      1
   567    497    498      1
   568    500    501      1
   569    501    571      1
   570    502   5834      1
   571    502   5837      1
   572    503   1077      1
   573    504    505      1
   574    504   1076      1
   575    504   1077      1
   576    506    507      1
   577    506    509      1
   578    507    511      1
   579    508    509      1
   580    508    512      1
   581    508    513      1
   582    510    512      1
   583    510   1084      1
   584    510   1086      1
   585    511    512      1
   586    511    578      1
   587    513   1021      1
   588    513   1084      1
   589    514    516      1
   590    515    517      1
   591    516    518      1
   592    516   1094      1
   593    517    518      1
   594    517    519      1
   595    519    520      1
   596    520    521      1
   597    522    595      1
   598    523    526      1
   599    525    527      1
   600    526    529      1
   601    526   1109      1
   602    527    528      1
   603    527    529      1
   604    527    530      1
   605    529    531      1
   606    530    532      1
   607    531    533      1
   608    531    534      1
   609    532    534      1
   610    533   1112      1
   611    533   1117      1
   612    534    535      1
   613    535    536      1
   614    535    538      1
   615    536    540      1
   616    536   1117      1
   617    537    539      1
   618    537    608      1
   619    537    611      1
   620    538    541      1
   621    539    542      1
   622    539    609      1
   623    542    543      1
   624    542    546      1
   625    544    546      1
   626    545    546      1
   627    545    547      1
   628    545    611      1
   629    546    549      1
   630    547   1123      1
   631    548    550      1
   632    553    616      1
   633    556    558      1
   634    557    559      1
   635    558    560      1
   636    559    560      1
   637    559    561      1
   638    560    562      1
   639    561    563      1
   640    562    564      1
   641    562    565      1
   642    563    565      1
   643    565    566      1
   644    567    572      1
   645    568    570      1
   646    568   1139      1
   647    569    570      1
   648    569    573      1
   649    570    572      1
   650    571    572      1
   651    571    574      1
   652    573    574      1
   653    576    579      1
   654    577    579      1
   655    577    644      1
   656    579    581      1
   657    580    581      1
   658    580    582      1
   659    580   1086      1
   660    581   1152      1
   661    583    584      1
   662    584    589      1
   663    586    587      1
   664    587    588      1
   665    587    589      1
   666    590    592      1
   667    590   1156      1
   668    591    592      1
   669    592   1161      1
   670    593    594      1
   671    593   5860      1
   672    594    595      1
   673    594    596      1
   674    595    598      1
   675    596    597      1
   676    596    600      1
   677    598    599      1
   678    598   1169      1
   679    599    600      1
   680    599   1168      1
   681    600    601      1
   682    602   5940      1
   683    602   5944      1
   684    603    605      1
   685    604    606      1
   686    606    607      1
   687    606    608      1
   688    607    609      1
   689    608   1183      1
   690    610    613      1
   691    611   1189      1
   692    612    613      1
   693    612   1190      1
   694    613    614      1
   695    614    616      1
   696    615    617      1
   697    616    617      1
   698    618    620      1
   699    618    621      1
   700    619    620      1
   701    619    676      1
   702    620    622      1
   703    622    623      1
   704    622    624      1
   705    623    625      1
   706    624    626      1
   707    624    679      1
   708    625    627      1
   709    626    627      1
   710    626    628      1
   711    627    629      1
   712    630    687      1
   713    631    632      1
   714    631    634      1
   715    631   1207      1
   716    633    634      1
   717    634    635      1
   718    635    637      1
   719    636    637      1
   720    638    639      1
   721    639    640      1
   722    639    694      1
   723    640    641      1
   724    640    699      1
   725    642    643      1
   726    643    646      1
   727    644   1151      1
   728    645    646      1
   729    646    649      1
   730    647    648      1
   731    648    706      1
   732    649    650      1
   733    653    654      1
   734    653   1241      1
   735    653   1245      1
   736    655    656      1
   737    655   1245      1
   738    657    659      1
   739    658   1178      1
   740    659    660      1
   741    659    663      1
   742    660    661      1
   743    660    662      1
   744    661    665      1
   745    662   1178      1
   746    663    666      1
   747    663    725      1
   748    664    668      1
   749    664   1254      1
   750    665    666      1
   751    666    729      1
   752    668    669      1
   753    668    670      1
   754    670    671      1
   755    674    675      1
   756    675    676      1
   757    675    678      1
   758    676    679      1
   759    677    678      1
   760    677    742      1
   761    677    746      1
   762    678    680      1
   763    679    681      1
   764    682    684      1
   765    683   1282      1
   766    685    686      1
   767    685    754      1
   768    686    687      1
   769    686    688      1
   770    687    689      1
   771    688    690      1
   772    688    759      1
   773    689    691      1
   774    689    692      1
   775    690    691      1
   776    690   1294      1
   777    691   1293      1
   778    694    695      1
   779    695    697      1
   780    695    698      1
   781    696    698      1
   782    697    699      1
   783    697   1298      1
   784    698    700      1
   785    699   1221      1
   786    700    701      1
   787    700    766      1
   788    701   1298      1
   789    701   1304      1
   790    702    704      1
   791    703    705      1
   792    704    705      1
   793    704    707      1
   794    705    706      1
   795    706    708      1
   796    707    709      1
   797    707    768      1
   798    708    709      1
   799    709    710      1
   800    710    774      1
   801    711    714      1
   802    713    715      1
   803    714    715      1
   804    714    717      1
   805    715    719      1
   806    716    717      1
   807    717    720      1
   808    718    719      1
   809    718    778      1
   810    719    721      1
   811    720    721      1
   812    720   1324      1
   813    721    722      1
   814    722    780      1
   815    722    782      1
   816    724    725      1
   817    724   1250      1
   818    724   1331      1
   819    725    727      1
   820    726    727      1
   821    727    728      1
   822    728    729      1
   823    728    731      1
   824    729    730      1
   825    732    733      1
   826    733    735      1
   827    734    735      1
   828    736    738      1
   829    736    798      1
   830    736   1340      1
   831    740    742      1
   832    740    744      1
   833    741    743      1
   834    741    744      1
   835    744    745      1
   836    745    746      1
   837    745    747      1
   838    746    748      1
   839    749    809      1
   840    750    753      1
   841    751    754      1
   842    752    756      1
   843    753    757      1
   844    753   1355      1
   845    754    757      1
   846    755    756      1
   847    756    758      1
   848    757    759      1
   849    758    760      1
   850    758    761      1
   851    759   1360      1
   852    761    762      1
   853    762    763      1
   854    762    764      1
   855    764    765      1
   856    767    768      1
   857    768    770      1
   858    769    773      1
   859    770    774      1
   860    770    775      1
   861    771    772      1
   862    772    830      1
   863    772   1379      1
   864    773    831      1
   865    774    776      1
   866    775   1383      1
   867    777   1385      1
   868    778    779      1
   869    778    780      1
   870    780    783      1
   871    781    783      1
   872    782    784      1
   873    782   1328      1
   874    783    785      1
   875    784    785      1
   876    784   1395      1
   877    785    786      1
   878    787    788      1
   879    788    792      1
   880    789    790      1
   881    789    791      1
   882    789   1395      1
   883    789   1400      1
   884    792    793      1
   885    794    796      1
   886    794   1400      1
   887    794   1404      1
   888    795    796      1
   889    796    798      1
   890    797    799      1
   891    798    801      1
   892    799    801      1
   893    799    802      1
   894    800    802      1
   895    803    804      1
   896    804    806      1
   897    804    856      1
   898    805    807      1
   899    806    807      1
   900    806    808      1
   901    807    809      1
   902    808    810      1
   903    808    811      1
   904    809    812      1
   905    810    857      1
   906    810    865      1
   907    811    812      1
   908    811    815      1
   909    812    813      1
   910    812    815      1
   911    814    815      1
   912    814    816      1
   913    814    865      1
   914    815    817      1
   915    818    874      1
   916    819    820      1
   917    820    821      1
   918    820    877      1
   919    821    826      1
   920    822    823      1
   921    823   1434      1
   922    823   1438      1
   923    824    825      1
   924    827   1438      1
   925    829    830      1
   926    830   1441      1
   927    831    832      1
   928    831    835      1
   929    832    833      1
   930    833    836      1
   931    833    893      1
   932    834   1449      1
   933    835    837      1
   934    836    837      1
   935    836    838      1
   936    837    839      1
   937    840    901      1
   938    843    904      1
   939    844    846      1
   940    845    847      1
   941    845    848      1
   942    845   1469      1
   943    846    847      1
   944    846    912      1
   945    847    849      1
   946    848    850      1
   947    848   1474      1
   948    852    915      1
   949    854    920      1
   950    855    856      1
   951    856    857      1
   952    857    858      1
   953    858    861      1
   954    859    922      1
   955    860   1488      1
   956    861    862      1
   957    861    864      1
   958    862    928      1
   959    863   1493      1
   960    864    865      1
   961    864    866      1
   962    867    869      1
   963    868    870      1
   964    868    931      1
   965    868   1501      1
   966    869    931      1
   967    869    933      1
   968    872    875      1
   969    873    874      1
   970    873    875      1
   971    873   1508      1
   972    874    877      1
   973    875    876      1
   974    876    878      1
   975    876    879      1
   976    877    879      1
   977    878    939      1
   978    880    881      1
   979    881    882      1
   980    881    884      1
   981    882    943      1
   982    882   1567      1
   983    883    885      1
   984    884    885      1
   985    884    886      1
   986    885    888      1
   987    886    887      1
   988    886    944      1
   989    887    890      1
   990    887    948      1
   991    888    889      1
   992    888    890      1
   993    890    891      1
   994    891    892      1
   995    893    895      1
   996    894    896      1
   997    896    959      1
   998    896   1528      1
   999    897    898      1
  1000    898    899      1
  1001    898   1530      1
  1002    900    964      1
  1003    901    902      1
  1004    902    903      1
  1005    902    904      1
  1006    903    906      1
  1007    904    907      1
  1008    905    907      1
  1009    906    908      1
  1010    906    974      1
  1011    907    908      1
  1012    908    909      1
  1013    910    911      1
  1014    911    912      1
  1015    911   1544      1
  1016    912   1543      1
  1017    914    915      1
  1018    916    918      1
  1019    917    919      1
  1020    921    923      1
  1021    922    923      1
  1022    922    928      1
  1023    923    924      1
  1024    924    925      1
  1025    924    926      1
  1026    925    994      1
  1027    925   1555      1
  1028    926    927      1
  1029    926    993      1
  1030    927    928      1
  1031    929    930      1
  1032    929   1560      1
  1033    929   1563      1
  1034    930    931      1
  1035    930    934      1
  1036    932    933      1
  1037    932    934      1
  1038    934    936      1
  1039    935    936      1
  1040    935   1563      1
  1041    935   1627      1
  1042    936    938      1
  1043    937    938      1
  1044    938   1009      1
  1045    941    942      1
  1046    942   1011      1
  1047    942   1018      1
  1048    943    944      1
  1049    943   1569      1
  1050    944    945      1
  1051    945    946      1
  1052    945    947      1
  1053    947    948      1
  1054    947    949      1
  1055    950    951      1
  1056    950   1574      1
  1057    951    952      1
  1058    951    953      1
  1059    952    954      1
  1060    952   1578      1
  1061    955   1027      1
  1062    956    957      1
  1063    958    959      1
  1064    959    961      1
  1065    960    963      1
  1066    961    962      1
  1067    961    964      1
  1068    962    966      1
  1069    962   1586      1
  1070    964    967      1
  1071    965   1036      1
  1072    966    968      1
  1073    966   1590      1
  1074    967    968      1
  1075    967    969      1
  1076    968    972      1
  1077    970    971      1
  1078    971    975      1
  1079    971   1036      1
  1080    971   1040      1
  1081    972    973      1
  1082    972   1594      1
  1083    974    977      1
  1084    975    978      1
  1085    975   1668      1
  1086    976    978      1
  1087    978    979      1
  1088    979   1045      1
  1089    979   1601      1
  1090    980    982      1
  1091    981    983      1
  1092    982    983      1
  1093    982    984      1
  1094    983    985      1
  1095    984    986      1
  1096    985   1611      1
  1097    988    989      1
  1098    988    990      1
  1099    990   1612      1
  1100    990   1616      1
  1101    991    992      1
  1102    991    993      1
  1103    991    994      1
  1104    994    995      1
  1105    996    998      1
  1106    996   1064      1
  1107    997    999      1
  1108    998    999      1
  1109    998   1002      1
  1110    999   1001      1
  1111   1000   1002      1
  1112   1000   1069      1
  1113   1002   1003      1
  1114   1002   1004      1
  1115   1004   1005      1
  1116   1004   1007      1
  1117   1006   1008      1
  1118   1006   1071      1
  1119   1006   1626      1
  1120   1009   1010      1
  1121   1009   1011      1
  1122   1011   1012      1
  1123   1013   1014      1
  1124   1014   1017      1
  1125   1014   1081      1
  1126   1015   1017      1
  1127   1015   1083      1
  1128   1015   1638      1
  1129   1016   1017      1
  1130   1019   1637      1
  1131   1020   1021      1
  1132   1020   1022      1
  1133   1020   1089      1
  1134   1023   1025      1
  1135   1024   1025      1
  1136   1024   1094      1
  1137   1025   1028      1
  1138   1026   1718      1
  1139   1028   1029      1
  1140   1028   1030      1
  1141   1030   1033      1
  1142   1031   1654      1
  1143   1032   1655      1
  1144   1033   1035      1
  1145   1034   1035      1
  1146   1035   1038      1
  1147   1036   1663      1
  1148   1037   1039      1
  1149   1038   1039      1
  1150   1039   1041      1
  1151   1041   1042      1
  1152   1043   1044      1
  1153   1043   1045      1
  1154   1043   1668      1
  1155   1044   1047      1
  1156   1044   1669      1
  1157   1045   1048      1
  1158   1046   1047      1
  1159   1047   1049      1
  1160   1048   1049      1
  1161   1048   1050      1
  1162   1049   1051      1
  1163   1052   1053      1
  1164   1052   1126      1
  1165   1052   1678      1
  1166   1053   1679      1
  1167   1054   1126      1
  1168   1055   1057      1
  1169   1056   1058      1
  1170   1057   1058      1
  1171   1057   1059      1
  1172   1058   1061      1
  1173   1059   1062      1
  1174   1060   1061      1
  1175   1060   1682      1
  1176   1060   1683      1
  1177   1061   1063      1
  1178   1062   1063      1
  1179   1063   1064      1
  1180   1064   1065      1
  1181   1065   1068      1
  1182   1065   1689      1
  1183   1067   1068      1
  1184   1068   1069      1
  1185   1070   1699      1
  1186   1071   1072      1
  1187   1071   1700      1
  1188   1073   1074      1
  1189   1074   1075      1
  1190   1074   1077      1
  1191   1074   1144      1
  1192   1075   1078      1
  1193   1075   1079      1
  1194   1076   1078      1
  1195   1078   1081      1
  1196   1079   1080      1
  1197   1079   1082      1
  1198   1081   1083      1
  1199   1082   1083      1
  1200   1082   1705      1
  1201   1084   1088      1
  1202   1085   1087      1
  1203   1085   1088      1
  1204   1085   1147      1
  1205   1086   1147      1
  1206   1087   1090      1
  1207   1087   1150      1
  1208   1088   1089      1
  1209   1089   1091      1
  1210   1090   1091      1
  1211   1090   1710      1
  1212   1091   1092      1
  1213   1093   1094      1
  1214   1095   1096      1
  1215   1095   1100      1
  1216   1095   1718      1
  1217   1096   1098      1
  1218   1096   1717      1
  1219   1097   1101      1
  1220   1098   1102      1
  1221   1098   1160      1
  1222   1099   1100      1
  1223   1100   1101      1
  1224   1101   1102      1
  1225   1102   1162      1
  1226   1103   1105      1
  1227   1103   1167      1
  1228   1103   1170      1
  1229   1104   1105      1
  1230   1105   1106      1
  1231   1106   1107      1
  1232   1106   1726      1
  1233   1108   1109      1
  1234   1109   1112      1
  1235   1110   1111      1
  1236   1111   1115      1
  1237   1111   1176      1
  1238   1112   1113      1
  1239   1114   1183      1
  1240   1115   1116      1
  1241   1115   1184      1
  1242   1117   1118      1
  1243   1119   1120      1
  1244   1119   1183      1
  1245   1119   1189      1
  1246   1121   1186      1
  1247   1122   1123      1
  1248   1122   1189      1
  1249   1122   1191      1
  1250   1123   1124      1
  1251   1128   1130      1
  1252   1129   1130      1
  1253   1130   1131      1
  1254   1131   1132      1
  1255   1131   1133      1
  1256   1133   1134      1
  1257   1133   1135      1
  1258   1136   1137      1
  1259   1136   1138      1
  1260   1137   1140      1
  1261   1137   1763      1
  1262   1138   1139      1
  1263   1139   1141      1
  1264   1140   1141      1
  1265   1140   1143      1
  1266   1141   1142      1
  1267   1145   1146      1
  1268   1146   1147      1
  1269   1146   1149      1
  1270   1148   1149      1
  1271   1149   1150      1
  1272   1150   1781      1
  1273   1151   1152      1
  1274   1151   1153      1
  1275   1152   1156      1
  1276   1153   1157      1
  1277   1154   1155      1
  1278   1155   1160      1
  1279   1155   1782      1
  1280   1156   1158      1
  1281   1157   1158      1
  1282   1157   1159      1
  1283   1158   1160      1
  1284   1163   1166      1
  1285   1163   1788      1
  1286   1164   1166      1
  1287   1164   1168      1
  1288   1164   1170      1
  1289   1165   1166      1
  1290   1165   1167      1
  1291   1165   1794      1
  1292   1167   1724      1
  1293   1168   1171      1
  1294   1170   1173      1
  1295   1174   1177      1
  1296   1174   1801      1
  1297   1175   1176      1
  1298   1176   1179      1
  1299   1177   1179      1
  1300   1179   1181      1
  1301   1181   1182      1
  1302   1181   1184      1
  1303   1182   1185      1
  1304   1182   1808      1
  1305   1184   1186      1
  1306   1185   1188      1
  1307   1186   1188      1
  1308   1188   1816      1
  1309   1193   1194      1
  1310   1193   1816      1
  1311   1193   1821      1
  1312   1195   1197      1
  1313   1196   1197      1
  1314   1196   1199      1
  1315   1197   1200      1
  1316   1197   1273      1
  1317   1198   1273      1
  1318   1199   1202      1
  1319   1199   1751      1
  1320   1200   1201      1
  1321   1200   1203      1
  1322   1203   1278      1
  1323   1203   1828      1
  1324   1204   1205      1
  1325   1205   1208      1
  1326   1205   1284      1
  1327   1206   1208      1
  1328   1208   1210      1
  1329   1210   1212      1
  1330   1210   1290      1
  1331   1211   1212      1
  1332   1212   1215      1
  1333   1214   1217      1
  1334   1215   1219      1
  1335   1215   1295      1
  1336   1216   1218      1
  1337   1217   1218      1
  1338   1217   1220      1
  1339   1219   1220      1
  1340   1219   1843      1
  1341   1220   1222      1
  1342   1221   1225      1
  1343   1221   1302      1
  1344   1222   1223      1
  1345   1222   1224      1
  1346   1224   1226      1
  1347   1224   1844      1
  1348   1226   1228      1
  1349   1226   1850      1
  1350   1227   1229      1
  1351   1229   1232      1
  1352   1229   1309      1
  1353   1231   1232      1
  1354   1232   1233      1
  1355   1233   1234      1
  1356   1233   1235      1
  1357   1234   1312      1
  1358   1234   1314      1
  1359   1236   1237      1
  1360   1237   1238      1
  1361   1237   1240      1
  1362   1239   1241      1
  1363   1240   1241      1
  1364   1240   1242      1
  1365   1243   1244      1
  1366   1243   1322      1
  1367   1243   1864      1
  1368   1246   1325      1
  1369   1247   1870      1
  1370   1248   1250      1
  1371   1249   1251      1
  1372   1250   1254      1
  1373   1251   1254      1
  1374   1252   1255      1
  1375   1253   1805      1
  1376   1253   1808      1
  1377   1255   1256      1
  1378   1255   1332      1
  1379   1256   1259      1
  1380   1256   1880      1
  1381   1257   1258      1
  1382   1258   1259      1
  1383   1258   1334      1
  1384   1258   1337      1
  1385   1259   1261      1
  1386   1260   1262      1
  1387   1260   1880      1
  1388   1261   1262      1
  1389   1261   1264      1
  1390   1262   1266      1
  1391   1263   1267      1
  1392   1264   1265      1
  1393   1264   1268      1
  1394   1265   1337      1
  1395   1265   1344      1
  1396   1267   1269      1
  1397   1269   1271      1
  1398   1270   1271      1
  1399   1272   1273      1
  1400   1273   1276      1
  1401   1274   1275      1
  1402   1275   1276      1
  1403   1275   1277      1
  1404   1276   1278      1
  1405   1277   1279      1
  1406   1277   1350      1
  1407   1278   1280      1
  1408   1279   1280      1
  1409   1279   1900      1
  1410   1280   1901      1
  1411   1281   1283      1
  1412   1282   1283      1
  1413   1282   1284      1
  1414   1283   1285      1
  1415   1284   1287      1
  1416   1285   1286      1
  1417   1285   1288      1
  1418   1287   1288      1
  1419   1287   1290      1
  1420   1288   1289      1
  1421   1289   1291      1
  1422   1289   1357      1
  1423   1290   1292      1
  1424   1291   1292      1
  1425   1291   1910      1
  1426   1292   1295      1
  1427   1292   1909      1
  1428   1294   1296      1
  1429   1294   1361      1
  1430   1295   1297      1
  1431   1298   1301      1
  1432   1299   1300      1
  1433   1300   1301      1
  1434   1300   1303      1
  1435   1301   1302      1
  1436   1302   1305      1
  1437   1303   1304      1
  1438   1303   1368      1
  1439   1304   1370      1
  1440   1306   1307      1
  1441   1307   1308      1
  1442   1307   1309      1
  1443   1308   1311      1
  1444   1308   1922      1
  1445   1309   1312      1
  1446   1310   1375      1
  1447   1311   1313      1
  1448   1311   1927      1
  1449   1312   1313      1
  1450   1313   1315      1
  1451   1314   1316      1
  1452   1314   1318      1
  1453   1315   1317      1
  1454   1315   1318      1
  1455   1317   1320      1
  1456   1317   1932      1
  1457   1318   1319      1
  1458   1321   1324      1
  1459   1322   1323      1
  1460   1322   1325      1
  1461   1323   1327      1
  1462   1323   1941      1
  1463   1324   1328      1
  1464   1325   1329      1
  1465   1326   1328      1
  1466   1327   1330      1
  1467   1327   1944      1
  1468   1329   1330      1
  1469   1329   1332      1
  1470   1330   1945      1
  1471   1332   1334      1
  1472   1333   1335      1
  1473   1334   1335      1
  1474   1335   1336      1
  1475   1336   1338      1
  1476   1336   1339      1
  1477   1337   1339      1
  1478   1338   1343      1
  1479   1338   1402      1
  1480   1339   1341      1
  1481   1342   1343      1
  1482   1343   1407      1
  1483   1346   1348      1
  1484   1346   1411      1
  1485   1347   1348      1
  1486   1348   1349      1
  1487   1349   1351      1
  1488   1349   1415      1
  1489   1352   1900      1
  1490   1353   1423      1
  1491   1353   1963      1
  1492   1354   1355      1
  1493   1355   1356      1
  1494   1356   1359      1
  1495   1356   1360      1
  1496   1358   1423      1
  1497   1358   1430      1
  1498   1358   1968      1
  1499   1360   1361      1
  1500   1361   1362      1
  1501   1363   1364      1
  1502   1363   1430      1
  1503   1363   1433      1
  1504   1364   1365      1
  1505   1364   1971      1
  1506   1365   1366      1
  1507   1365   1974      1
  1508   1367   1436      1
  1509   1369   1372      1
  1510   1369   1435      1
  1511   1369   1983      1
  1512   1371   1372      1
  1513   1372   1373      1
  1514   1373   1374      1
  1515   1373   1989      1
  1516   1375   1376      1
  1517   1376   1377      1
  1518   1376   1380      1
  1519   1377   1378      1
  1520   1377   1379      1
  1521   1378   1381      1
  1522   1378   1441      1
  1523   1379   1383      1
  1524   1380   1382      1
  1525   1380   1994      1
  1526   1381   1382      1
  1527   1381   1443      1
  1528   1382   1995      1
  1529   1383   1384      1
  1530   1385   1386      1
  1531   1385   1452      1
  1532   1386   1387      1
  1533   1386   1388      1
  1534   1388   1390      1
  1535   1388   1457      1
  1536   1389   1390      1
  1537   1390   1391      1
  1538   1391   1392      1
  1539   1391   1461      1
  1540   1393   1394      1
  1541   1394   1395      1
  1542   1394   1397      1
  1543   1396   1398      1
  1544   1397   1398      1
  1545   1397   1399      1
  1546   1398   1401      1
  1547   1399   1400      1
  1548   1399   1402      1
  1549   1401   1403      1
  1550   1401   2007      1
  1551   1402   1403      1
  1552   1403   1405      1
  1553   1405   1406      1
  1554   1405   1407      1
  1555   1405   2009      1
  1556   1408   1409      1
  1557   1409   1476      1
  1558   1410   1412      1
  1559   1411   1413      1
  1560   1412   1414      1
  1561   1412   1484      1
  1562   1413   1414      1
  1563   1413   1415      1
  1564   1414   1416      1
  1565   1415   1418      1
  1566   1416   1417      1
  1567   1416   1419      1
  1568   1416   1491      1
  1569   1418   1419      1
  1570   1419   1420      1
  1571   1421   1425      1
  1572   1422   1423      1
  1573   1424   1425      1
  1574   1424   1498      1
  1575   1424   2032      1
  1576   1425   1426      1
  1577   1425   1429      1
  1578   1427   1505      1
  1579   1428   1430      1
  1580   1429   1505      1
  1581   1429   1507      1
  1582   1431   2032      1
  1583   1432   1507      1
  1584   1432   2032      1
  1585   1432   2036      1
  1586   1434   1437      1
  1587   1434   1517      1
  1588   1435   1440      1
  1589   1435   2043      1
  1590   1436   1438      1
  1591   1436   1440      1
  1592   1437   1439      1
  1593   1437   1440      1
  1594   1439   1521      1
  1595   1439   2046      1
  1596   1441   1442      1
  1597   1442   1444      1
  1598   1442   1445      1
  1599   1443   1444      1
  1600   1443   2056      1
  1601   1444   1446      1
  1602   1447   1450      1
  1603   1448   1526      1
  1604   1449   1450      1
  1605   1449   1452      1
  1606   1450   1453      1
  1607   1451   1453      1
  1608   1452   1455      1
  1609   1453   1456      1
  1610   1454   2062      1
  1611   1455   1456      1
  1612   1455   1457      1
  1613   1456   1458      1
  1614   1457   1459      1
  1615   1458   1460      1
  1616   1458   1532      1
  1617   1459   1460      1
  1618   1459   1461      1
  1619   1460   1462      1
  1620   1461   1463      1
  1621   1464   1466      1
  1622   1465   1467      1
  1623   1466   1467      1
  1624   1466   1541      1
  1625   1467   1470      1
  1626   1468   1472      1
  1627   1469   1470      1
  1628   1469   1543      1
  1629   1470   1472      1
  1630   1471   2075      1
  1631   1472   1474      1
  1632   1473   2080      1
  1633   1474   1476      1
  1634   1475   1478      1
  1635   1476   1478      1
  1636   1477   2010      1
  1637   1478   1479      1
  1638   1480   1481      1
  1639   1480   1550      1
  1640   1481   1483      1
  1641   1481   2148      1
  1642   1482   1483      1
  1643   1483   1485      1
  1644   1485   1490      1
  1645   1486   1489      1
  1646   1487   1488      1
  1647   1487   1489      1
  1648   1488   1493      1
  1649   1489   1495      1
  1650   1489   1557      1
  1651   1490   1492      1
  1652   1490   1494      1
  1653   1491   1492      1
  1654   1491   1493      1
  1655   1492   1496      1
  1656   1494   1495      1
  1657   1494   1496      1
  1658   1495   1500      1
  1659   1496   1497      1
  1660   1496   1498      1
  1661   1498   2101      1
  1662   1499   1501      1
  1663   1500   1503      1
  1664   1500   1561      1
  1665   1501   1560      1
  1666   1502   1503      1
  1667   1503   1504      1
  1668   1503   1506      1
  1669   1505   1508      1
  1670   1507   1510      1
  1671   1508   1509      1
  1672   1509   1510      1
  1673   1509   1512      1
  1674   1510   1513      1
  1675   1511   1512      1
  1676   1512   1514      1
  1677   1513   1515      1
  1678   1513   2111      1
  1679   1514   1515      1
  1680   1514   1566      1
  1681   1515   1516      1
  1682   1517   1518      1
  1683   1517   1519      1
  1684   1519   1520      1
  1685   1519   1521      1
  1686   1521   2117      1
  1687   1522   1568      1
  1688   1523   2118      1
  1689   1524   1578      1
  1690   1525   2130      1
  1691   1526   2060      1
  1692   1526   2130      1
  1693   1527   1528      1
  1694   1528   1586      1
  1695   1529   1587      1
  1696   1530   1531      1
  1697   1531   1532      1
  1698   1532   1534      1
  1699   1533   1534      1
  1700   1534   1535      1
  1701   1535   1536      1
  1702   1535   1537      1
  1703   1537   1538      1
  1704   1537   2135      1
  1705   1538   1539      1
  1706   1538   2138      1
  1707   1540   1542      1
  1708   1541   1542      1
  1709   1541   1543      1
  1710   1542   1544      1
  1711   1544   1546      1
  1712   1545   2138      1
  1713   1548   1549      1
  1714   1548   1550      1
  1715   1549   1552      1
  1716   1549   1612      1
  1717   1550   1551      1
  1718   1551   1553      1
  1719   1551   1554      1
  1720   1552   1554      1
  1721   1552   1617      1
  1722   1554   1556      1
  1723   1558   1559      1
  1724   1558   2160      1
  1725   1558   2162      1
  1726   1559   1561      1
  1727   1559   1562      1
  1728   1560   1561      1
  1729   1562   1563      1
  1730   1562   1623      1
  1731   1564   1565      1
  1732   1565   1628      1
  1733   1565   1631      1
  1734   1568   1569      1
  1735   1568   1571      1
  1736   1569   1573      1
  1737   1570   1572      1
  1738   1571   1572      1
  1739   1571   1575      1
  1740   1572   2184      1
  1741   1573   1574      1
  1742   1573   1578      1
  1743   1574   1575      1
  1744   1575   1576      1
  1745   1576   1577      1
  1746   1576   1641      1
  1747   1577   2184      1
  1748   1577   2188      1
  1749   1579   2128      1
  1750   1580   1582      1
  1751   1581   1582      1
  1752   1581   1650      1
  1753   1581   2188      1
  1754   1582   1583      1
  1755   1583   1584      1
  1756   1583   1585      1
  1757   1585   1652      1
  1758   1585   1654      1
  1759   1586   1587      1
  1760   1587   1588      1
  1761   1588   1589      1
  1762   1588   1590      1
  1763   1590   1591      1
  1764   1591   1593      1
  1765   1591   1594      1
  1766   1592   1593      1
  1767   1592   1662      1
  1768   1592   1666      1
  1769   1593   1595      1
  1770   1594   1596      1
  1771   1595   1597      1
  1772   1597   1599      1
  1773   1597   2207      1
  1774   1598   1670      1
  1775   1600   1602      1
  1776   1600   2207      1
  1777   1600   2210      1
  1778   1603   1604      1
  1779   1604   1608      1
  1780   1604   1675      1
  1781   1605   1606      1
  1782   1606   1607      1
  1783   1606   1609      1
  1784   1606   1610      1
  1785   1608   1610      1
  1786   1608   1680      1
  1787   1609   2144      1
  1788   1613   1614      1
  1789   1613   1615      1
  1790   1615   1618      1
  1791   1615   2218      1
  1792   1618   1619      1
  1793   1618   2222      1
  1794   1620   2222      1
  1795   1621   2162      1
  1796   1622   1624      1
  1797   1624   1626      1
  1798   1624   1695      1
  1799   1625   1626      1
  1800   1628   1630      1
  1801   1628   2171      1
  1802   1629   1631      1
  1803   1630   1633      1
  1804   1630   2231      1
  1805   1631   1632      1
  1806   1632   1633      1
  1807   1632   1637      1
  1808   1633   1634      1
  1809   1634   1635      1
  1810   1634   1636      1
  1811   1635   1707      1
  1812   1635   2232      1
  1813   1636   1638      1
  1814   1636   1705      1
  1815   1637   1638      1
  1816   1637   1639      1
  1817   1640   1641      1
  1818   1641   1645      1
  1819   1642   1643      1
  1820   1643   1647      1
  1821   1643   1712      1
  1822   1644   1645      1
  1823   1644   1646      1
  1824   1644   1647      1
  1825   1645   2244      1
  1826   1646   1711      1
  1827   1646   2242      1
  1828   1647   1648      1
  1829   1649   1651      1
  1830   1650   1652      1
  1831   1650   2252      1
  1832   1651   1653      1
  1833   1651   2253      1
  1834   1652   1653      1
  1835   1653   1656      1
  1836   1654   1655      1
  1837   1655   1656      1
  1838   1656   1657      1
  1839   1658   1659      1
  1840   1659   1662      1
  1841   1659   2258      1
  1842   1660   1663      1
  1843   1661   1662      1
  1844   1663   1665      1
  1845   1664   1667      1
  1846   1665   1667      1
  1847   1665   1668      1
  1848   1666   1670      1
  1849   1666   2263      1
  1850   1667   1669      1
  1851   1669   1735      1
  1852   1670   2270      1
  1853   1671   1672      1
  1854   1672   1673      1
  1855   1672   1674      1
  1856   1673   1675      1
  1857   1674   1676      1
  1858   1674   1739      1
  1859   1675   1677      1
  1860   1676   1677      1
  1861   1676   1678      1
  1862   1677   1679      1
  1863   1678   1745      1
  1864   1679   1680      1
  1865   1681   1682      1
  1866   1684   1685      1
  1867   1685   1687      1
  1868   1685   1688      1
  1869   1686   1687      1
  1870   1687   1690      1
  1871   1688   1689      1
  1872   1688   1691      1
  1873   1690   1692      1
  1874   1690   1694      1
  1875   1690   1756      1
  1876   1691   1694      1
  1877   1691   1695      1
  1878   1692   1698      1
  1879   1692   1758      1
  1880   1693   1697      1
  1881   1694   1696      1
  1882   1695   1700      1
  1883   1696   1699      1
  1884   1696   1759      1
  1885   1697   1698      1
  1886   1697   1703      1
  1887   1698   1702      1
  1888   1699   1700      1
  1889   1701   1703      1
  1890   1702   1766      1
  1891   1702   2296      1
  1892   1703   2294      1
  1893   1704   1706      1
  1894   1705   1706      1
  1895   1706   1707      1
  1896   1706   1708      1
  1897   1707   1709      1
  1898   1707   2307      1
  1899   1711   1712      1
  1900   1711   1713      1
  1901   1712   1715      1
  1902   1713   1714      1
  1903   1713   2314      1
  1904   1716   1719      1
  1905   1717   1720      1
  1906   1717   1782      1
  1907   1718   1721      1
  1908   1719   1720      1
  1909   1719   1786      1
  1910   1720   1721      1
  1911   1721   1722      1
  1912   1723   1724      1
  1913   1723   1725      1
  1914   1723   1793      1
  1915   1724   1726      1
  1916   1726   1727      1
  1917   1728   1731      1
  1918   1729   1730      1
  1919   1730   1731      1
  1920   1730   1733      1
  1921   1731   1806      1
  1922   1732   1734      1
  1923   1733   1734      1
  1924   1733   1736      1
  1925   1734   1735      1
  1926   1735   1739      1
  1927   1736   1737      1
  1928   1736   1738      1
  1929   1737   1806      1
  1930   1737   1812      1
  1931   1738   1739      1
  1932   1738   1741      1
  1933   1740   1741      1
  1934   1740   1743      1
  1935   1740   1812      1
  1936   1741   1744      1
  1937   1742   2344      1
  1938   1746   1747      1
  1939   1747   1819      1
  1940   1747   2348      1
  1941   1748   1820      1
  1942   1749   1752      1
  1943   1750   2353      1
  1944   1752   1753      1
  1945   1752   1754      1
  1946   1754   1755      1
  1947   1757   1758      1
  1948   1758   1761      1
  1949   1760   1762      1
  1950   1761   1764      1
  1951   1761   1766      1
  1952   1762   1763      1
  1953   1762   1764      1
  1954   1763   1765      1
  1955   1764   1767      1
  1956   1766   1768      1
  1957   1767   1769      1
  1958   1768   1769      1
  1959   1768   1773      1
  1960   1769   1772      1
  1961   1770   1774      1
  1962   1771   1774      1
  1963   1773   1775      1
  1964   1773   2300      1
  1965   1774   1776      1
  1966   1776   1777      1
  1967   1776   1778      1
  1968   1778   1779      1
  1969   1778   1780      1
  1970   1782   1784      1
  1971   1783   1784      1
  1972   1784   1786      1
  1973   1785   1786      1
  1974   1788   1791      1
  1975   1789   1791      1
  1976   1790   2386      1
  1977   1791   1794      1
  1978   1792   1793      1
  1979   1793   1794      1
  1980   1795   1797      1
  1981   1795   2386      1
  1982   1796   1800      1
  1983   1797   1799      1
  1984   1797   2394      1
  1985   1798   1799      1
  1986   1799   1800      1
  1987   1799   1802      1
  1988   1800   1801      1
  1989   1801   1803      1
  1990   1804   1807      1
  1991   1806   1807      1
  1992   1807   1810      1
  1993   1809   1810      1
  1994   1810   1811      1
  1995   1811   1812      1
  1996   1811   1814      1
  1997   1813   1815      1
  1998   1815   1817      1
  1999   1816   1817      1
  2000   1817   1820      1
  2001   1818   1819      1
  2002   1823   2408      1
  2003   1824   1895      1
  2004   1825   1898      1
  2005   1826   2414      1
  2006   1827   1828      1
  2007   1828   1902      1
  2008   1829   1830      1
  2009   1830   1832      1
  2010   1831   1832      1
  2011   1832   1833      1
  2012   1833   1835      1
  2013   1833   1836      1
  2014   1834   1836      1
  2015   1835   1837      1
  2016   1836   1838      1
  2017   1837   1839      1
  2018   1838   1839      1
  2019   1838   1840      1
  2020   1839   1841      1
  2021   1842   1843      1
  2022   1843   1844      1
  2023   1844   1846      1
  2024   1845   1848      1
  2025   1845   2431      1
  2026   1845   2432      1
  2027   1847   1848      1
  2028   1848   1849      1
  2029   1849   1852      1
  2030   1851   1852      1
  2031   1853   1855      1
  2032   1853   1925      1
  2033   1853   2434      1
  2034   1854   1856      1
  2035   1854   2437      1
  2036   1854   2442      1
  2037   1855   1856      1
  2038   1855   1931      1
  2039   1856   1858      1
  2040   1857   1859      1
  2041   1858   1859      1
  2042   1858   1860      1
  2043   1860   1862      1
  2044   1860   1934      1
  2045   1861   2386      1
  2046   1863   1864      1
  2047   1864   1938      1
  2048   1865   1866      1
  2049   1865   2450      1
  2050   1866   1869      1
  2051   1867   1868      1
  2052   1867   1869      1
  2053   1867   2452      1
  2054   1869   1871      1
  2055   1870   1871      1
  2056   1871   1872      1
  2057   1871   1874      1
  2058   1873   2458      1
  2059   1875   1877      1
  2060   1876   1880      1
  2061   1877   1880      1
  2062   1877   1881      1
  2063   1877   1883      1
  2064   1878   1881      1
  2065   1879   1881      1
  2066   1879   1952      1
  2067   1879   2462      1
  2068   1882   1883      1
  2069   1883   1884      1
  2070   1883   1951      1
  2071   1885   1886      1
  2072   1886   1889      1
  2073   1886   2521      1
  2074   1887   1888      1
  2075   1888   1889      1
  2076   1888   1890      1
  2077   1889   1892      1
  2078   1890   1891      1
  2079   1890   1893      1
  2080   1894   1896      1
  2081   1894   1959      1
  2082   1895   1897      1
  2083   1896   1897      1
  2084   1896   2468      1
  2085   1897   1898      1
  2086   1898   1899      1
  2087   1899   2415      1
  2088   1899   2470      1
  2089   1900   1903      1
  2090   1901   1902      1
  2091   1901   1904      1
  2092   1902   1905      1
  2093   1903   1904      1
  2094   1903   1964      1
  2095   1904   1906      1
  2096   1907   1908      1
  2097   1908   1970      1
  2098   1908   2477      1
  2099   1911   1912      1
  2100   1911   1970      1
  2101   1911   2481      1
  2102   1912   1913      1
  2103   1912   1973      1
  2104   1913   1914      1
  2105   1913   1915      1
  2106   1915   1916      1
  2107   1915   2484      1
  2108   1916   1917      1
  2109   1916   1918      1
  2110   1917   1919      1
  2111   1917   2487      1
  2112   1920   1990      1
  2113   1921   1924      1
  2114   1923   1924      1
  2115   1923   2494      1
  2116   1923   2499      1
  2117   1924   1926      1
  2118   1924   1991      1
  2119   1926   1927      1
  2120   1926   1928      1
  2121   1927   1932      1
  2122   1928   1930      1
  2123   1928   2503      1
  2124   1929   1931      1
  2125   1931   1934      1
  2126   1932   1933      1
  2127   1934   1936      1
  2128   1935   1937      1
  2129   1936   1937      1
  2130   1936   1938      1
  2131   1937   1939      1
  2132   1938   1941      1
  2133   1939   1940      1
  2134   1939   1942      1
  2135   1941   1942      1
  2136   1942   1943      1
  2137   1943   1944      1
  2138   1943   2000      1
  2139   1944   2004      1
  2140   1946   1949      1
  2141   1947   1948      1
  2142   1948   1949      1
  2143   1948   1951      1
  2144   1949   1950      1
  2145   1950   2512      1
  2146   1950   2514      1
  2147   1951   1952      1
  2148   1952   2514      1
  2149   1953   2582      1
  2150   1954   1956      1
  2151   1955   1957      1
  2152   1956   1957      1
  2153   1958   1960      1
  2154   1958   2013      1
  2155   1959   2530      1
  2156   1961   2013      1
  2157   1962   1963      1
  2158   1963   1966      1
  2159   1965   1967      1
  2160   1966   1967      1
  2161   1966   1968      1
  2162   1967   1969      1
  2163   1968   1971      1
  2164   1969   1970      1
  2165   1969   1972      1
  2166   1971   1972      1
  2167   1972   1973      1
  2168   1973   1974      1
  2169   1974   1976      1
  2170   1975   1978      1
  2171   1977   1981      1
  2172   1978   1980      1
  2173   1978   1982      1
  2174   1979   1981      1
  2175   1979   1982      1
  2176   1979   2042      1
  2177   1979   2045      1
  2178   1980   1984      1
  2179   1980   2549      1
  2180   1981   1983      1
  2181   1981   2043      1
  2182   1982   1985      1
  2183   1983   1986      1
  2184   1984   1987      1
  2185   1984   2494      1
  2186   1985   1986      1
  2187   1985   1987      1
  2188   1986   1989      1
  2189   1987   1991      1
  2190   1988   2049      1
  2191   1989   1990      1
  2192   1990   1991      1
  2193   1990   1992      1
  2194   1991   1993      1
  2195   1996   1998      1
  2196   1997   1999      1
  2197   1998   1999      1
  2198   1998   2565      1
  2199   1999   2001      1
  2200   2001   2002      1
  2201   2001   2003      1
  2202   2003   2006      1
  2203   2003   2567      1
  2204   2005   2006      1
  2205   2006   2572      1
  2206   2008   2081      1
  2207   2010   2084      1
  2208   2012   2014      1
  2209   2014   2017      1
  2210   2014   2532      1
  2211   2015   2091      1
  2212   2016   2018      1
  2213   2017   2018      1
  2214   2017   2021      1
  2215   2018   2020      1
  2216   2019   2020      1
  2217   2020   2023      1
  2218   2021   2022      1
  2219   2021   2593      1
  2220   2022   2023      1
  2221   2022   2025      1
  2222   2023   2024      1
  2223   2025   2026      1
  2224   2025   2027      1
  2225   2025   2602      1
  2226   2026   2028      1
  2227   2026   2599      1
  2228   2026   2605      1
  2229   2029   2030      1
  2230   2029   2033      1
  2231   2029   2605      1
  2232   2030   2103      1
  2233   2030   2664      1
  2234   2031   2032      1
  2235   2031   2033      1
  2236   2031   2102      1
  2237   2033   2035      1
  2238   2034   2605      1
  2239   2036   2037      1
  2240   2036   2111      1
  2241   2038   2039      1
  2242   2039   2040      1
  2243   2039   2044      1
  2244   2040   2110      1
  2245   2040   2115      1
  2246   2041   2043      1
  2247   2043   2046      1
  2248   2044   2045      1
  2249   2044   2615      1
  2250   2045   2049      1
  2251   2046   2048      1
  2252   2047   2048      1
  2253   2048   2050      1
  2254   2049   2621      1
  2255   2050   2051      1
  2256   2050   2052      1
  2257   2052   2053      1
  2258   2052   2054      1
  2259   2054   2055      1
  2260   2054   2126      1
  2261   2055   2057      1
  2262   2055   2684      1
  2263   2057   2058      1
  2264   2057   2629      1
  2265   2058   2059      1
  2266   2058   2129      1
  2267   2059   2060      1
  2268   2059   2061      1
  2269   2060   2062      1
  2270   2061   2063      1
  2271   2061   2631      1
  2272   2062   2064      1
  2273   2063   2064      1
  2274   2063   2066      1
  2275   2064   2067      1
  2276   2065   2633      1
  2277   2066   2633      1
  2278   2066   2699      1
  2279   2068   2069      1
  2280   2069   2071      1
  2281   2069   2136      1
  2282   2070   2071      1
  2283   2071   2075      1
  2284   2072   2074      1
  2285   2073   2077      1
  2286   2074   2079      1
  2287   2074   2644      1
  2288   2075   2080      1
  2289   2076   2078      1
  2290   2077   2079      1
  2291   2077   2081      1
  2292   2078   2139      1
  2293   2078   2646      1
  2294   2079   2083      1
  2295   2080   2082      1
  2296   2080   2137      1
  2297   2081   2084      1
  2298   2083   2085      1
  2299   2083   2649      1
  2300   2084   2085      1
  2301   2085   2086      1
  2302   2087   2148      1
  2303   2088   2089      1
  2304   2088   2090      1
  2305   2088   2147      1
  2306   2089   2091      1
  2307   2089   2590      1
  2308   2089   2653      1
  2309   2090   2092      1
  2310   2090   2151      1
  2311   2091   2093      1
  2312   2091   2590      1
  2313   2092   2093      1
  2314   2092   2094      1
  2315   2093   2095      1
  2316   2094   2096      1
  2317   2094   2155      1
  2318   2095   2097      1
  2319   2095   2654      1
  2320   2096   2097      1
  2321   2096   2099      1
  2322   2097   2098      1
  2323   2100   2101      1
  2324   2101   2102      1
  2325   2102   2103      1
  2326   2103   2105      1
  2327   2104   2107      1
  2328   2105   2106      1
  2329   2106   2663      1
  2330   2107   2108      1
  2331   2108   2109      1
  2332   2108   2170      1
  2333   2111   2112      1
  2334   2113   2114      1
  2335   2114   2115      1
  2336   2114   2671      1
  2337   2115   2614      1
  2338   2116   2120      1
  2339   2117   2118      1
  2340   2117   2119      1
  2341   2118   2122      1
  2342   2120   2121      1
  2343   2120   2122      1
  2344   2121   2675      1
  2345   2121   2680      1
  2346   2122   2124      1
  2347   2123   2126      1
  2348   2124   2125      1
  2349   2124   2127      1
  2350   2125   2187      1
  2351   2125   2680      1
  2352   2126   2129      1
  2353   2127   2128      1
  2354   2128   2191      1
  2355   2129   2130      1
  2356   2131   2133      1
  2357   2132   2700      1
  2358   2133   2699      1
  2359   2133   2700      1
  2360   2134   2135      1
  2361   2135   2136      1
  2362   2136   2137      1
  2363   2137   2138      1
  2364   2139   2142      1
  2365   2139   2716      1
  2366   2140   2141      1
  2367   2140   2211      1
  2368   2140   2718      1
  2369   2141   2142      1
  2370   2141   2145      1
  2371   2142   2143      1
  2372   2144   2146      1
  2373   2144   2213      1
  2374   2149   2151      1
  2375   2150   2152      1
  2376   2150   2217      1
  2377   2150   2219      1
  2378   2151   2153      1
  2379   2152   2153      1
  2380   2152   2154      1
  2381   2153   2155      1
  2382   2154   2156      1
  2383   2154   2223      1
  2384   2155   2158      1
  2385   2157   2160      1
  2386   2158   2159      1
  2387   2158   2161      1
  2388   2159   2731      1
  2389   2159   2733      1
  2390   2160   2161      1
  2391   2161   2164      1
  2392   2162   2163      1
  2393   2163   2164      1
  2394   2163   2226      1
  2395   2164   2165      1
  2396   2165   2227      1
  2397   2165   2733      1
  2398   2166   2738      1
  2399   2167   2168      1
  2400   2168   2170      1
  2401   2168   2171      1
  2402   2169   2173      1
  2403   2169   2738      1
  2404   2170   2172      1
  2405   2171   2174      1
  2406   2172   2173      1
  2407   2172   2175      1
  2408   2173   2176      1
  2409   2174   2175      1
  2410   2174   2177      1
  2411   2175   2178      1
  2412   2176   2179      1
  2413   2176   2670      1
  2414   2177   2181      1
  2415   2177   2235      1
  2416   2178   2179      1
  2417   2178   2182      1
  2418   2179   2180      1
  2419   2181   2182      1
  2420   2181   2240      1
  2421   2182   2183      1
  2422   2184   2185      1
  2423   2186   2187      1
  2424   2187   2189      1
  2425   2188   2248      1
  2426   2189   2191      1
  2427   2190   2192      1
  2428   2191   2193      1
  2429   2192   2194      1
  2430   2192   2250      1
  2431   2192   2251      1
  2432   2195   2196      1
  2433   2195   2197      1
  2434   2195   2759      1
  2435   2197   2198      1
  2436   2197   2764      1
  2437   2199   2768      1
  2438   2200   2203      1
  2439   2201   2202      1
  2440   2202   2203      1
  2441   2202   2205      1
  2442   2203   2204      1
  2443   2204   2206      1
  2444   2204   2709      1
  2445   2205   2207      1
  2446   2205   2208      1
  2447   2206   2208      1
  2448   2206   2775      1
  2449   2208   2209      1
  2450   2209   2210      1
  2451   2209   2212      1
  2452   2210   2214      1
  2453   2212   2215      1
  2454   2212   2777      1
  2455   2218   2219      1
  2456   2219   2221      1
  2457   2220   2794      1
  2458   2221   2222      1
  2459   2221   2223      1
  2460   2223   2224      1
  2461   2225   2226      1
  2462   2226   2228      1
  2463   2227   2228      1
  2464   2227   2806      1
  2465   2228   2229      1
  2466   2230   2231      1
  2467   2231   2232      1
  2468   2232   2234      1
  2469   2233   2236      1
  2470   2233   2810      1
  2471   2233   2811      1
  2472   2236   2237      1
  2473   2236   2238      1
  2474   2237   2239      1
  2475   2237   2305      1
  2476   2241   2243      1
  2477   2242   2245      1
  2478   2242   2312      1
  2479   2243   2246      1
  2480   2243   2313      1
  2481   2244   2245      1
  2482   2244   2248      1
  2483   2245   2246      1
  2484   2246   2247      1
  2485   2248   2251      1
  2486   2249   2831      1
  2487   2251   2252      1
  2488   2252   2253      1
  2489   2253   2254      1
  2490   2255   2328      1
  2491   2256   2257      1
  2492   2257   2258      1
  2493   2257   2260      1
  2494   2258   2263      1
  2495   2259   2260      1
  2496   2260   2264      1
  2497   2261   2332      1
  2498   2262   2332      1
  2499   2263   2266      1
  2500   2264   2265      1
  2501   2264   2266      1
  2502   2266   2268      1
  2503   2267   2334      1
  2504   2268   2270      1
  2505   2268   2272      1
  2506   2269   2271      1
  2507   2270   2275      1
  2508   2271   2273      1
  2509   2271   2339      1
  2510   2273   2274      1
  2511   2273   2342      1
  2512   2276   2342      1
  2513   2277   2279      1
  2514   2278   2282      1
  2515   2279   2281      1
  2516   2279   2283      1
  2517   2280   2281      1
  2518   2282   2283      1
  2519   2284   2287      1
  2520   2285   2287      1
  2521   2285   2352      1
  2522   2286   2288      1
  2523   2287   2288      1
  2524   2288   2289      1
  2525   2289   2355      1
  2526   2289   2920      1
  2527   2290   2291      1
  2528   2291   2292      1
  2529   2291   2293      1
  2530   2292   2295      1
  2531   2292   2366      1
  2532   2293   2298      1
  2533   2293   2875      1
  2534   2294   2296      1
  2535   2294   2297      1
  2536   2295   2299      1
  2537   2295   2371      1
  2538   2296   2300      1
  2539   2298   2299      1
  2540   2298   2301      1
  2541   2299   2302      1
  2542   2300   2304      1
  2543   2301   2305      1
  2544   2301   2810      1
  2545   2302   2303      1
  2546   2302   2306      1
  2547   2305   2306      1
  2548   2306   2308      1
  2549   2309   2375      1
  2550   2310   2315      1
  2551   2310   2375      1
  2552   2310   2376      1
  2553   2311   2313      1
  2554   2312   2313      1
  2555   2312   2314      1
  2556   2314   2315      1
  2557   2315   2317      1
  2558   2315   2318      1
  2559   2316   2317      1
  2560   2316   2379      1
  2561   2316   2885      1
  2562   2317   2319      1
  2563   2319   2320      1
  2564   2319   2321      1
  2565   2321   2323      1
  2566   2321   2887      1
  2567   2322   2324      1
  2568   2324   2327      1
  2569   2324   2387      1
  2570   2325   2326      1
  2571   2326   2327      1
  2572   2326   2328      1
  2573   2327   2329      1
  2574   2328   2330      1
  2575   2329   2331      1
  2576   2329   2393      1
  2577   2330   2331      1
  2578   2330   2332      1
  2579   2331   2333      1
  2580   2332   2334      1
  2581   2333   2336      1
  2582   2333   2397      1
  2583   2334   2336      1
  2584   2335   2900      1
  2585   2336   2338      1
  2586   2337   2901      1
  2587   2339   2340      1
  2588   2339   2905      1
  2589   2340   2341      1
  2590   2340   2343      1
  2591   2341   2342      1
  2592   2341   2344      1
  2593   2343   2345      1
  2594   2343   2909      1
  2595   2344   2346      1
  2596   2345   2346      1
  2597   2345   2402      1
  2598   2346   2347      1
  2599   2348   2349      1
  2600   2350   2352      1
  2601   2350   2353      1
  2602   2351   2354      1
  2603   2351   2404      1
  2604   2352   2355      1
  2605   2353   2358      1
  2606   2354   2357      1
  2607   2355   2356      1
  2608   2356   2357      1
  2609   2356   2358      1
  2610   2357   2918      1
  2611   2358   2359      1
  2612   2360   2362      1
  2613   2361   2364      1
  2614   2362   2363      1
  2615   2362   2364      1
  2616   2363   2365      1
  2617   2364   2366      1
  2618   2365   2367      1
  2619   2366   2367      1
  2620   2367   2368      1
  2621   2368   2369      1
  2622   2368   2935      1
  2623   2369   2370      1
  2624   2372   2374      1
  2625   2372   2943      1
  2626   2373   2375      1
  2627   2374   2377      1
  2628   2374   2947      1
  2629   2375   2379      1
  2630   2377   2378      1
  2631   2377   2380      1
  2632   2378   2381      1
  2633   2379   2948      1
  2634   2382   2383      1
  2635   2384   2389      1
  2636   2385   2387      1
  2637   2387   2391      1
  2638   2388   2389      1
  2639   2388   2957      1
  2640   2389   2390      1
  2641   2390   2391      1
  2642   2390   2392      1
  2643   2391   2393      1
  2644   2392   2394      1
  2645   2393   2395      1
  2646   2395   2396      1
  2647   2395   2397      1
  2648   2397   2398      1
  2649   2399   2966      1
  2650   2400   2968      1
  2651   2402   2403      1
  2652   2402   2975      1
  2653   2405   2406      1
  2654   2406   2407      1
  2655   2406   2409      1
  2656   2408   2409      1
  2657   2408   2410      1
  2658   2409   2411      1
  2659   2410   2413      1
  2660   2412   2993      1
  2661   2414   2415      1
  2662   2414   2418      1
  2663   2415   2416      1
  2664   2416   2420      1
  2665   2416   2471      1
  2666   2417   2418      1
  2667   2418   2419      1
  2668   2419   2420      1
  2669   2419   2422      1
  2670   2420   2421      1
  2671   2421   2423      1
  2672   2421   3068      1
  2673   2422   2424      1
  2674   2422   2425      1
  2675   2423   2425      1
  2676   2423   3000      1
  2677   2425   2426      1
  2678   2426   3003      1
  2679   2427   2429      1
  2680   2428   2430      1
  2681   2429   2430      1
  2682   2429   2432      1
  2683   2433   2434      1
  2684   2434   2437      1
  2685   2435   2436      1
  2686   2436   2437      1
  2687   2436   2439      1
  2688   2438   2439      1
  2689   2440   2441      1
  2690   2441   3021      1
  2691   2441   3026      1
  2692   2443   2444      1
  2693   2444   2446      1
  2694   2444   3026      1
  2695   2445   2447      1
  2696   2445   2955      1
  2697   2446   2449      1
  2698   2446   3106      1
  2699   2447   2448      1
  2700   2447   2450      1
  2701   2450   2452      1
  2702   2451   2452      1
  2703   2453   2456      1
  2704   2454   2455      1
  2705   2455   2456      1
  2706   2455   2457      1
  2707   2456   2458      1
  2708   2459   2460      1
  2709   2460   2462      1
  2710   2460   2510      1
  2711   2461   2462      1
  2712   2463   2464      1
  2713   2464   2465      1
  2714   2464   3053      1
  2715   2466   2467      1
  2716   2466   2526      1
  2717   2468   2469      1
  2718   2468   2470      1
  2719   2469   2530      1
  2720   2469   2535      1
  2721   2470   2472      1
  2722   2472   2473      1
  2723   2472   2474      1
  2724   2473   2475      1
  2725   2473   2535      1
  2726   2476   2477      1
  2727   2477   2479      1
  2728   2478   2480      1
  2729   2479   2480      1
  2730   2479   2481      1
  2731   2480   2482      1
  2732   2481   2484      1
  2733   2482   2483      1
  2734   2482   2485      1
  2735   2484   2485      1
  2736   2485   2487      1
  2737   2486   3086      1
  2738   2487   2488      1
  2739   2489   2492      1
  2740   2490   2493      1
  2741   2491   2551      1
  2742   2491   2555      1
  2743   2491   3086      1
  2744   2492   2494      1
  2745   2492   2495      1
  2746   2493   2495      1
  2747   2493   2496      1
  2748   2495   2497      1
  2749   2496   2498      1
  2750   2496   3094      1
  2751   2497   2499      1
  2752   2497   2501      1
  2753   2498   2500      1
  2754   2498   2501      1
  2755   2499   2503      1
  2756   2501   2504      1
  2757   2502   3098      1
  2758   2503   2505      1
  2759   2504   2505      1
  2760   2504   2506      1
  2761   2505   2507      1
  2762   2508   2564      1
  2763   2509   2510      1
  2764   2509   2511      1
  2765   2509   2512      1
  2766   2510   2514      1
  2767   2511   3123      1
  2768   2512   2513      1
  2769   2515   3123      1
  2770   2516   2517      1
  2771   2517   2579      1
  2772   2517   3128      1
  2773   2518   2521      1
  2774   2519   2520      1
  2775   2519   3128      1
  2776   2519   3135      1
  2777   2521   2524      1
  2778   2522   2523      1
  2779   2523   2585      1
  2780   2524   2525      1
  2781   2526   2528      1
  2782   2529   2532      1
  2783   2530   2531      1
  2784   2532   2534      1
  2785   2533   2535      1
  2786   2534   2538      1
  2787   2534   2593      1
  2788   2536   3144      1
  2789   2537   2538      1
  2790   2538   2540      1
  2791   2539   3143      1
  2792   2540   2541      1
  2793   2540   2542      1
  2794   2542   2543      1
  2795   2542   2599      1
  2796   2544   2546      1
  2797   2545   2547      1
  2798   2546   2547      1
  2799   2546   3153      1
  2800   2547   2609      1
  2801   2548   2550      1
  2802   2550   2553      1
  2803   2550   3160      1
  2804   2552   2553      1
  2805   2553   2554      1
  2806   2554   2616      1
  2807   2554   2621      1
  2808   2555   2556      1
  2809   2555   3095      1
  2810   2557   3165      1
  2811   2558   2559      1
  2812   2558   2622      1
  2813   2558   3165      1
  2814   2559   2560      1
  2815   2559   2561      1
  2816   2561   2562      1
  2817   2561   2625      1
  2818   2563   2566      1
  2819   2564   2565      1
  2820   2564   2566      1
  2821   2565   2567      1
  2822   2566   2568      1
  2823   2567   2569      1
  2824   2568   2569      1
  2825   2568   2570      1
  2826   2569   2571      1
  2827   2570   2573      1
  2828   2570   3181      1
  2829   2571   2572      1
  2830   2571   2574      1
  2831   2572   2575      1
  2832   2573   2574      1
  2833   2573   3182      1
  2834   2574   2577      1
  2835   2576   2579      1
  2836   2577   2581      1
  2837   2577   2643      1
  2838   2578   2580      1
  2839   2579   3185      1
  2840   2580   2581      1
  2841   2580   2582      1
  2842   2581   2583      1
  2843   2582   2585      1
  2844   2583   2584      1
  2845   2583   2586      1
  2846   2584   2587      1
  2847   2584   2647      1
  2848   2585   2586      1
  2849   2586   2588      1
  2850   2587   2589      1
  2851   2587   2650      1
  2852   2588   2589      1
  2853   2590   2592      1
  2854   2591   2592      1
  2855   2592   2654      1
  2856   2593   2599      1
  2857   2594   2596      1
  2858   2595   2596      1
  2859   2595   2597      1
  2860   2595   2656      1
  2861   2596   2598      1
  2862   2597   3208      1
  2863   2597   3268      1
  2864   2598   2600      1
  2865   2598   2601      1
  2866   2600   3202      1
  2867   2600   3208      1
  2868   2600   3210      1
  2869   2603   2604      1
  2870   2604   2605      1
  2871   2604   2607      1
  2872   2606   2607      1
  2873   2607   2664      1
  2874   2608   2609      1
  2875   2608   2610      1
  2876   2608   3218      1
  2877   2609   2612      1
  2878   2610   2611      1
  2879   2610   2613      1
  2880   2611   3222      1
  2881   2611   3223      1
  2882   2614   2615      1
  2883   2614   2674      1
  2884   2615   2620      1
  2885   2616   2618      1
  2886   2616   3162      1
  2887   2617   2619      1
  2888   2617   2674      1
  2889   2617   2677      1
  2890   2618   2619      1
  2891   2618   3231      1
  2892   2619   2620      1
  2893   2620   2621      1
  2894   2622   2623      1
  2895   2622   3234      1
  2896   2623   2624      1
  2897   2623   2625      1
  2898   2624   2626      1
  2899   2624   3239      1
  2900   2625   2628      1
  2901   2627   2629      1
  2902   2629   2631      1
  2903   2630   2693      1
  2904   2631   2632      1
  2905   2633   2634      1
  2906   2634   2635      1
  2907   2634   2636      1
  2908   2636   2637      1
  2909   2636   2701      1
  2910   2637   2638      1
  2911   2637   2705      1
  2912   2639   2643      1
  2913   2640   2642      1
  2914   2640   2713      1
  2915   2640   3248      1
  2916   2641   2642      1
  2917   2642   2645      1
  2918   2643   2647      1
  2919   2644   2646      1
  2920   2644   2648      1
  2921   2645   2646      1
  2922   2645   2717      1
  2923   2647   2648      1
  2924   2648   2649      1
  2925   2649   2651      1
  2926   2651   2652      1
  2927   2654   2656      1
  2928   2655   2657      1
  2929   2656   2657      1
  2930   2657   2659      1
  2931   2658   2730      1
  2932   2659   2660      1
  2933   2659   3268      1
  2934   2660   2661      1
  2935   2660   3272      1
  2936   2662   2663      1
  2937   2663   2665      1
  2938   2663   2738      1
  2939   2664   2666      1
  2940   2666   2668      1
  2941   2667   3275      1
  2942   2669   2671      1
  2943   2671   2673      1
  2944   2672   2673      1
  2945   2673   2674      1
  2946   2676   2747      1
  2947   2678   2679      1
  2948   2679   2682      1
  2949   2679   2683      1
  2950   2680   2681      1
  2951   2681   2683      1
  2952   2681   2752      1
  2953   2682   3293      1
  2954   2682   3296      1
  2955   2683   2685      1
  2956   2685   2686      1
  2957   2685   2688      1
  2958   2686   2690      1
  2959   2686   3296      1
  2960   2687   2688      1
  2961   2688   2692      1
  2962   2689   2691      1
  2963   2690   2693      1
  2964   2690   2694      1
  2965   2691   2696      1
  2966   2691   2697      1
  2967   2691   3304      1
  2968   2692   2694      1
  2969   2692   2695      1
  2970   2693   3240      1
  2971   2694   2698      1
  2972   2697   2760      1
  2973   2697   2765      1
  2974   2699   2701      1
  2975   2700   2702      1
  2976   2701   2703      1
  2977   2702   2703      1
  2978   2702   2771      1
  2979   2703   2704      1
  2980   2704   2705      1
  2981   2704   2706      1
  2982   2705   3309      1
  2983   2706   2707      1
  2984   2706   3310      1
  2985   2707   2771      1
  2986   2707   2772      1
  2987   2708   2709      1
  2988   2709   2774      1
  2989   2710   2712      1
  2990   2711   2716      1
  2991   2712   2714      1
  2992   2712   2715      1
  2993   2713   2714      1
  2994   2713   3311      1
  2995   2714   2717      1
  2996   2715   2718      1
  2997   2715   2774      1
  2998   2716   2717      1
  2999   2716   2718      1
  3000   2719   2721      1
  3001   2719   2722      1
  3002   2720   2721      1
  3003   2721   2724      1
  3004   2722   2723      1
  3005   2722   2785      1
  3006   2723   2725      1
  3007   2723   2790      1
  3008   2724   2725      1
  3009   2724   2727      1
  3010   2725   2728      1
  3011   2726   2727      1
  3012   2727   2730      1
  3013   2728   2729      1
  3014   2728   3332      1
  3015   2729   2730      1
  3016   2729   3336      1
  3017   2732   2734      1
  3018   2733   2734      1
  3019   2734   2736      1
  3020   2735   3341      1
  3021   2736   2804      1
  3022   2736   2806      1
  3023   2737   2739      1
  3024   2739   2740      1
  3025   2739   3357      1
  3026   2740   2741      1
  3027   2740   2742      1
  3028   2742   2744      1
  3029   2742   3363      1
  3030   2743   2744      1
  3031   2744   2746      1
  3032   2745   2816      1
  3033   2746   2747      1
  3034   2746   3368      1
  3035   2747   3291      1
  3036   2748   2749      1
  3037   2749   2750      1
  3038   2749   2819      1
  3039   2750   2751      1
  3040   2750   2753      1
  3041   2751   2752      1
  3042   2753   2755      1
  3043   2753   2824      1
  3044   2754   2756      1
  3045   2756   2757      1
  3046   2756   2829      1
  3047   2757   2759      1
  3048   2757   2762      1
  3049   2758   2759      1
  3050   2761   3378      1
  3051   2762   2764      1
  3052   2762   2834      1
  3053   2763   2765      1
  3054   2763   2766      1
  3055   2763   3379      1
  3056   2764   2768      1
  3057   2765   2767      1
  3058   2766   2769      1
  3059   2766   3378      1
  3060   2768   2839      1
  3061   2769   2843      1
  3062   2769   3384      1
  3063   2770   2771      1
  3064   2773   2774      1
  3065   2773   2775      1
  3066   2773   2776      1
  3067   2775   2777      1
  3068   2777   2778      1
  3069   2779   2780      1
  3070   2780   2782      1
  3071   2780   3397      1
  3072   2781   2782      1
  3073   2782   3399      1
  3074   2784   2786      1
  3075   2785   2789      1
  3076   2786   2789      1
  3077   2786   2791      1
  3078   2787   2788      1
  3079   2788   2789      1
  3080   2788   2790      1
  3081   2789   2792      1
  3082   2790   2795      1
  3083   2791   2793      1
  3084   2791   2794      1
  3085   2793   2796      1
  3086   2793   2860      1
  3087   2794   2797      1
  3088   2795   3332      1
  3089   2795   3408      1
  3090   2796   2798      1
  3091   2796   2865      1
  3092   2797   2798      1
  3093   2797   2799      1
  3094   2798   2800      1
  3095   2800   2801      1
  3096   2800   2802      1
  3097   2801   2803      1
  3098   2801   3409      1
  3099   2805   2875      1
  3100   2806   2807      1
  3101   2808   2809      1
  3102   2809   2810      1
  3103   2809   2875      1
  3104   2812   3424      1
  3105   2813   2815      1
  3106   2814   2816      1
  3107   2815   2816      1
  3108   2815   2818      1
  3109   2816   2819      1
  3110   2817   2818      1
  3111   2817   2880      1
  3112   2817   2881      1
  3113   2818   2820      1
  3114   2819   2821      1
  3115   2820   2821      1
  3116   2820   2823      1
  3117   2821   2824      1
  3118   2822   2823      1
  3119   2822   2881      1
  3120   2822   2883      1
  3121   2823   2826      1
  3122   2824   2827      1
  3123   2825   2829      1
  3124   2826   2827      1
  3125   2826   2828      1
  3126   2827   2830      1
  3127   2829   2832      1
  3128   2831   2832      1
  3129   2831   2833      1
  3130   2832   2834      1
  3131   2833   2835      1
  3132   2833   2836      1
  3133   2834   2837      1
  3134   2836   2837      1
  3135   2836   2838      1
  3136   2837   2839      1
  3137   2838   2842      1
  3138   2838   2892      1
  3139   2839   2840      1
  3140   2841   2843      1
  3141   2841   3450      1
  3142   2841   3452      1
  3143   2842   2845      1
  3144   2842   2896      1
  3145   2843   2844      1
  3146   2845   2846      1
  3147   2845   2847      1
  3148   2846   2902      1
  3149   2846   3454      1
  3150   2847   2848      1
  3151   2847   2901      1
  3152   2849   2850      1
  3153   2849   2852      1
  3154   2849   2902      1
  3155   2851   2905      1
  3156   2852   2853      1
  3157   2852   3522      1
  3158   2853   2854      1
  3159   2853   2911      1
  3160   2853   3461      1
  3161   2855   3397      1
  3162   2856   2858      1
  3163   2859   2860      1
  3164   2860   3405      1
  3165   2861   2863      1
  3166   2862   2863      1
  3167   2862   2915      1
  3168   2862   2919      1
  3169   2863   2864      1
  3170   2864   2866      1
  3171   2864   2867      1
  3172   2865   2867      1
  3173   2865   3409      1
  3174   2865   3469      1
  3175   2866   2868      1
  3176   2866   2924      1
  3177   2867   2869      1
  3178   2868   2871      1
  3179   2868   2928      1
  3180   2869   2870      1
  3181   2869   2871      1
  3182   2871   2872      1
  3183   2872   2873      1
  3184   2872   2874      1
  3185   2874   2929      1
  3186   2874   2936      1
  3187   2876   2877      1
  3188   2877   2878      1
  3189   2877   2879      1
  3190   2877   2936      1
  3191   2881   2882      1
  3192   2884   2885      1
  3193   2884   2886      1
  3194   2884   2950      1
  3195   2885   2887      1
  3196   2886   2953      1
  3197   2886   2954      1
  3198   2887   2956      1
  3199   2888   2954      1
  3200   2889   2892      1
  3201   2890   2893      1
  3202   2891   2956      1
  3203   2892   2894      1
  3204   2893   2894      1
  3205   2893   2895      1
  3206   2894   2896      1
  3207   2895   2897      1
  3208   2895   2959      1
  3209   2896   2898      1
  3210   2897   2898      1
  3211   2897   2961      1
  3212   2898   2899      1
  3213   2899   2900      1
  3214   2899   2901      1
  3215   2900   2962      1
  3216   2902   2903      1
  3217   2902   3513      1
  3218   2904   2906      1
  3219   2905   2906      1
  3220   2906   2909      1
  3221   2907   3523      1
  3222   2908   2909      1
  3223   2908   2970      1
  3224   2908   2973      1
  3225   2910   2973      1
  3226   2912   3461      1
  3227   2913   2914      1
  3228   2914   3524      1
  3229   2914   3529      1
  3230   2917   2919      1
  3231   2918   2920      1
  3232   2918   2922      1
  3233   2919   2924      1
  3234   2920   2923      1
  3235   2921   3537      1
  3236   2924   3542      1
  3237   2926   2927      1
  3238   2928   2929      1
  3239   2928   3546      1
  3240   2929   2930      1
  3241   2931   2932      1
  3242   2931   2933      1
  3243   2933   2934      1
  3244   2936   2937      1
  3245   2937   2939      1
  3246   2938   2939      1
  3247   2939   2940      1
  3248   2941   2942      1
  3249   2942   2944      1
  3250   2943   2944      1
  3251   2944   2945      1
  3252   2945   2946      1
  3253   2945   2947      1
  3254   2947   2948      1
  3255   2948   2950      1
  3256   2949   2950      1
  3257   2951   2952      1
  3258   2954   2956      1
  3259   2957   2958      1
  3260   2960   2961      1
  3261   2961   2962      1
  3262   2962   2965      1
  3263   2963   2964      1
  3264   2963   2966      1
  3265   2964   2967      1
  3266   2966   2968      1
  3267   2967   2969      1
  3268   2967   3590      1
  3269   2968   2969      1
  3270   2969   2971      1
  3271   2971   2972      1
  3272   2971   2973      1
  3273   2972   2974      1
  3274   2972   3592      1
  3275   2977   2979      1
  3276   2978   2981      1
  3277   2979   2980      1
  3278   2979   2982      1
  3279   2981   2982      1
  3280   2981   2983      1
  3281   2982   2985      1
  3282   2983   2986      1
  3283   2983   3603      1
  3284   2984   2985      1
  3285   2986   3529      1
  3286   2987   2989      1
  3287   2988   2990      1
  3288   2988   3608      1
  3289   2989   2990      1
  3290   2989   2992      1
  3291   2990   2994      1
  3292   2991   2992      1
  3293   2992   2993      1
  3294   2993   2995      1
  3295   2994   2995      1
  3296   2996   2997      1
  3297   2997   2999      1
  3298   2997   3612      1
  3299   2998   2999      1
  3300   2999   3616      1
  3301   3001   3002      1
  3302   3001   3004      1
  3303   3001   3071      1
  3304   3004   3005      1
  3305   3004   3624      1
  3306   3006   3007      1
  3307   3007   3009      1
  3308   3008   3010      1
  3309   3009   3010      1
  3310   3009   3012      1
  3311   3010   3011      1
  3312   3011   3013      1
  3313   3011   3085      1
  3314   3012   3014      1
  3315   3012   3561      1
  3316   3013   3014      1
  3317   3013   3015      1
  3318   3014   3017      1
  3319   3016   3017      1
  3320   3016   3567      1
  3321   3017   3021      1
  3322   3018   3022      1
  3323   3019   3022      1
  3324   3020   3096      1
  3325   3021   3022      1
  3326   3022   3023      1
  3327   3023   3024      1
  3328   3023   3025      1
  3329   3024   3027      1
  3330   3024   3634      1
  3331   3025   3026      1
  3332   3025   3028      1
  3333   3027   3030      1
  3334   3027   3640      1
  3335   3028   3030      1
  3336   3028   3106      1
  3337   3029   3031      1
  3338   3029   3641      1
  3339   3030   3032      1
  3340   3031   3033      1
  3341   3031   3034      1
  3342   3032   3111      1
  3343   3032   3645      1
  3344   3033   3035      1
  3345   3034   3038      1
  3346   3034   3646      1
  3347   3035   3036      1
  3348   3035   3037      1
  3349   3037   3038      1
  3350   3037   3039      1
  3351   3038   3650      1
  3352   3040   3041      1
  3353   3040   3117      1
  3354   3040   3722      1
  3355   3041   3044      1
  3356   3041   3650      1
  3357   3042   3043      1
  3358   3043   3044      1
  3359   3043   3045      1
  3360   3044   3046      1
  3361   3045   3048      1
  3362   3046   3049      1
  3363   3046   3121      1
  3364   3048   3049      1
  3365   3048   3050      1
  3366   3049   3052      1
  3367   3051   3053      1
  3368   3052   3055      1
  3369   3052   3126      1
  3370   3053   3056      1
  3371   3054   3660      1
  3372   3056   3057      1
  3373   3056   3058      1
  3374   3059   3662      1
  3375   3060   3135      1
  3376   3061   3137      1
  3377   3063   3065      1
  3378   3064   3139      1
  3379   3065   3139      1
  3380   3065   3140      1
  3381   3066   3067      1
  3382   3067   3069      1
  3383   3067   3677      1
  3384   3069   3070      1
  3385   3069   3071      1
  3386   3071   3681      1
  3387   3072   3073      1
  3388   3073   3075      1
  3389   3073   3148      1
  3390   3074   3076      1
  3391   3075   3076      1
  3392   3075   3077      1
  3393   3076   3078      1
  3394   3077   3080      1
  3395   3077   3152      1
  3396   3078   3079      1
  3397   3078   3081      1
  3398   3080   3081      1
  3399   3080   3082      1
  3400   3081   3083      1
  3401   3082   3087      1
  3402   3082   3157      1
  3403   3084   3088      1
  3404   3086   3089      1
  3405   3087   3088      1
  3406   3087   3089      1
  3407   3088   3090      1
  3408   3089   3091      1
  3409   3090   3092      1
  3410   3090   3093      1
  3411   3091   3093      1
  3412   3091   3095      1
  3413   3092   3096      1
  3414   3092   3695      1
  3415   3093   3097      1
  3416   3095   3098      1
  3417   3096   3099      1
  3418   3096   3700      1
  3419   3097   3099      1
  3420   3097   3100      1
  3421   3098   3100      1
  3422   3099   3703      1
  3423   3100   3101      1
  3424   3102   3103      1
  3425   3102   3104      1
  3426   3102   3173      1
  3427   3103   3105      1
  3428   3103   3174      1
  3429   3105   3107      1
  3430   3105   3108      1
  3431   3106   3109      1
  3432   3108   3110      1
  3433   3108   3709      1
  3434   3109   3111      1
  3435   3109   3112      1
  3436   3111   3113      1
  3437   3114   3721      1
  3438   3115   3116      1
  3439   3116   3117      1
  3440   3116   3118      1
  3441   3116   3120      1
  3442   3117   3121      1
  3443   3119   3120      1
  3444   3120   3122      1
  3445   3120   3124      1
  3446   3121   3125      1
  3447   3122   3123      1
  3448   3122   3125      1
  3449   3125   3126      1
  3450   3126   3127      1
  3451   3128   3129      1
  3452   3129   3131      1
  3453   3129   3188      1
  3454   3130   3132      1
  3455   3130   3186      1
  3456   3130   3732      1
  3457   3131   3132      1
  3458   3131   3134      1
  3459   3132   3133      1
  3460   3133   3136      1
  3461   3133   3735      1
  3462   3134   3135      1
  3463   3139   3143      1
  3464   3140   3141      1
  3465   3140   3745      1
  3466   3141   3142      1
  3467   3141   3145      1
  3468   3142   3143      1
  3469   3142   3144      1
  3470   3144   3202      1
  3471   3145   3146      1
  3472   3145   3204      1
  3473   3146   3746      1
  3474   3146   3801      1
  3475   3147   3148      1
  3476   3148   3150      1
  3477   3149   3151      1
  3478   3150   3152      1
  3479   3150   3751      1
  3480   3151   3153      1
  3481   3151   3214      1
  3482   3152   3154      1
  3483   3153   3218      1
  3484   3154   3157      1
  3485   3154   3754      1
  3486   3155   3159      1
  3487   3156   3158      1
  3488   3157   3161      1
  3489   3158   3159      1
  3490   3158   3160      1
  3491   3159   3226      1
  3492   3160   3162      1
  3493   3162   3227      1
  3494   3163   3164      1
  3495   3164   3168      1
  3496   3164   3766      1
  3497   3165   3166      1
  3498   3166   3167      1
  3499   3166   3169      1
  3500   3167   3170      1
  3501   3167   3234      1
  3502   3168   3169      1
  3503   3168   3174      1
  3504   3169   3173      1
  3505   3170   3171      1
  3506   3170   3236      1
  3507   3172   3173      1
  3508   3174   3770      1
  3509   3175   3176      1
  3510   3176   3178      1
  3511   3176   3773      1
  3512   3177   3179      1
  3513   3178   3179      1
  3514   3178   3242      1
  3515   3179   3244      1
  3516   3180   3780      1
  3517   3183   3186      1
  3518   3184   3185      1
  3519   3185   3188      1
  3520   3186   3188      1
  3521   3187   3189      1
  3522   3187   3249      1
  3523   3187   3251      1
  3524   3189   3190      1
  3525   3189   3191      1
  3526   3191   3192      1
  3527   3191   3193      1
  3528   3192   3788      1
  3529   3192   3842      1
  3530   3193   3194      1
  3531   3193   3195      1
  3532   3196   3197      1
  3533   3196   3198      1
  3534   3198   3200      1
  3535   3198   3260      1
  3536   3199   3796      1
  3537   3201   3202      1
  3538   3202   3204      1
  3539   3203   3205      1
  3540   3204   3206      1
  3541   3205   3207      1
  3542   3205   3269      1
  3543   3206   3207      1
  3544   3206   3209      1
  3545   3207   3208      1
  3546   3209   3211      1
  3547   3209   3801      1
  3548   3212   3214      1
  3549   3213   3215      1
  3550   3214   3216      1
  3551   3215   3216      1
  3552   3215   3217      1
  3553   3216   3221      1
  3554   3217   3219      1
  3555   3217   3220      1
  3556   3218   3221      1
  3557   3220   3222      1
  3558   3220   3279      1
  3559   3221   3222      1
  3560   3224   3283      1
  3561   3225   3226      1
  3562   3225   3228      1
  3563   3225   3807      1
  3564   3226   3227      1
  3565   3227   3229      1
  3566   3228   3230      1
  3567   3228   3808      1
  3568   3229   3230      1
  3569   3229   3231      1
  3570   3230   3233      1
  3571   3231   3232      1
  3572   3234   3238      1
  3573   3235   3237      1
  3574   3236   3237      1
  3575   3236   3816      1
  3576   3237   3238      1
  3577   3238   3239      1
  3578   3239   3240      1
  3579   3239   3241      1
  3580   3240   3298      1
  3581   3242   3245      1
  3582   3242   3827      1
  3583   3243   3244      1
  3584   3244   3246      1
  3585   3245   3246      1
  3586   3245   3831      1
  3587   3246   3247      1
  3588   3250   3251      1
  3589   3251   3842      1
  3590   3252   3253      1
  3591   3253   3254      1
  3592   3253   3318      1
  3593   3254   3255      1
  3594   3254   3256      1
  3595   3256   3322      1
  3596   3257   3259      1
  3597   3257   3260      1
  3598   3258   3852      1
  3599   3259   3261      1
  3600   3260   3262      1
  3601   3263   3265      1
  3602   3264   3266      1
  3603   3265   3266      1
  3604   3265   3267      1
  3605   3266   3858      1
  3606   3267   3334      1
  3607   3267   3338      1
  3608   3268   3269      1
  3609   3269   3270      1
  3610   3270   3271      1
  3611   3270   3272      1
  3612   3272   3273      1
  3613   3274   3276      1
  3614   3275   3276      1
  3615   3275   3277      1
  3616   3276   3278      1
  3617   3277   3280      1
  3618   3277   3358      1
  3619   3278   3279      1
  3620   3278   3281      1
  3621   3279   3283      1
  3622   3280   3281      1
  3623   3280   3365      1
  3624   3281   3282      1
  3625   3281   3284      1
  3626   3283   3285      1
  3627   3284   3285      1
  3628   3284   3288      1
  3629   3285   3286      1
  3630   3286   3287      1
  3631   3286   3867      1
  3632   3287   3289      1
  3633   3287   3868      1
  3634   3288   3289      1
  3635   3288   3291      1
  3636   3289   3370      1
  3637   3290   3293      1
  3638   3291   3292      1
  3639   3293   3295      1
  3640   3294   3295      1
  3641   3295   3297      1
  3642   3296   3298      1
  3643   3297   3298      1
  3644   3297   3299      1
  3645   3300   3301      1
  3646   3301   3302      1
  3647   3301   3374      1
  3648   3302   3303      1
  3649   3302   3304      1
  3650   3304   3379      1
  3651   3305   3882      1
  3652   3306   3307      1
  3653   3307   3882      1
  3654   3307   3887      1
  3655   3308   3889      1
  3656   3312   3314      1
  3657   3313   3315      1
  3658   3314   3315      1
  3659   3314   3317      1
  3660   3315   3318      1
  3661   3316   3317      1
  3662   3317   3321      1
  3663   3318   3320      1
  3664   3319   3899      1
  3665   3320   3321      1
  3666   3320   3322      1
  3667   3321   3323      1
  3668   3324   3327      1
  3669   3325   3326      1
  3670   3326   3328      1
  3671   3326   3329      1
  3672   3327   3328      1
  3673   3327   3402      1
  3674   3328   3907      1
  3675   3330   3334      1
  3676   3331   3333      1
  3677   3332   3335      1
  3678   3333   3337      1
  3679   3333   3407      1
  3680   3334   3336      1
  3681   3336   3341      1
  3682   3337   3412      1
  3683   3337   3978      1
  3684   3338   3339      1
  3685   3338   3342      1
  3686   3339   3858      1
  3687   3339   3917      1
  3688   3340   3343      1
  3689   3341   3342      1
  3690   3341   3343      1
  3691   3342   3346      1
  3692   3343   3348      1
  3693   3344   3345      1
  3694   3344   3349      1
  3695   3344   3412      1
  3696   3345   3916      1
  3697   3345   3922      1
  3698   3346   3347      1
  3699   3346   3351      1
  3700   3347   3352      1
  3701   3347   3917      1
  3702   3348   3350      1
  3703   3348   3351      1
  3704   3349   3350      1
  3705   3349   3356      1
  3706   3350   3357      1
  3707   3351   3353      1
  3708   3351   3354      1
  3709   3355   3356      1
  3710   3356   3359      1
  3711   3356   3421      1
  3712   3357   3360      1
  3713   3359   3360      1
  3714   3359   3361      1
  3715   3360   3363      1
  3716   3361   3362      1
  3717   3361   3364      1
  3718   3363   3367      1
  3719   3364   3366      1
  3720   3364   3367      1
  3721   3367   3368      1
  3722   3368   3369      1
  3723   3371   3372      1
  3724   3371   3441      1
  3725   3371   3939      1
  3726   3372   3373      1
  3727   3372   3375      1
  3728   3373   3374      1
  3729   3373   3941      1
  3730   3374   3377      1
  3731   3375   3376      1
  3732   3375   3445      1
  3733   3376   3377      1
  3734   3376   3378      1
  3735   3377   3379      1
  3736   3378   3450      1
  3737   3380   3453      1
  3738   3381   3382      1
  3739   3382   3383      1
  3740   3382   3385      1
  3741   3383   3453      1
  3742   3383   3955      1
  3743   3385   3386      1
  3744   3385   3387      1
  3745   3387   3388      1
  3746   3387   3957      1
  3747   3389   3456      1
  3748   3390   3391      1
  3749   3391   3392      1
  3750   3391   3393      1
  3751   3392   3456      1
  3752   3392   3965      1
  3753   3393   3394      1
  3754   3393   3395      1
  3755   3395   3396      1
  3756   3395   3966      1
  3757   3397   3398      1
  3758   3398   3465      1
  3759   3400   3401      1
  3760   3400   3402      1
  3761   3402   3407      1
  3762   3403   3468      1
  3763   3404   3406      1
  3764   3405   3466      1
  3765   3405   3469      1
  3766   3406   3407      1
  3767   3406   3975      1
  3768   3409   3475      1
  3769   3410   3411      1
  3770   3411   3414      1
  3771   3411   3475      1
  3772   3412   3413      1
  3773   3414   3416      1
  3774   3414   3478      1
  3775   3415   3416      1
  3776   3416   3418      1
  3777   3417   3420      1
  3778   3418   3420      1
  3779   3418   3421      1
  3780   3419   3421      1
  3781   3420   3422      1
  3782   3421   3423      1
  3783   3422   3424      1
  3784   3423   3425      1
  3785   3423   3428      1
  3786   3424   3427      1
  3787   3426   3427      1
  3788   3426   3429      1
  3789   3426   3483      1
  3790   3426   3487      1
  3791   3427   3484      1
  3792   3427   3485      1
  3793   3428   3429      1
  3794   3428   3996      1
  3795   3429   3430      1
  3796   3430   3431      1
  3797   3431   3432      1
  3798   3431   3433      1
  3799   3434   4004      1
  3800   3435   3437      1
  3801   3435   3438      1
  3802   3435   4004      1
  3803   3436   3437      1
  3804   3437   3439      1
  3805   3438   3441      1
  3806   3438   4005      1
  3807   3439   3440      1
  3808   3439   3442      1
  3809   3441   3442      1
  3810   3442   3443      1
  3811   3444   3447      1
  3812   3446   3448      1
  3813   3447   3449      1
  3814   3447   3502      1
  3815   3448   3449      1
  3816   3448   3450      1
  3817   3449   3451      1
  3818   3451   3452      1
  3819   3451   3505      1
  3820   3452   3454      1
  3821   3453   4021      1
  3822   3454   3512      1
  3823   3455   3457      1
  3824   3456   3457      1
  3825   3457   4031      1
  3826   3458   3459      1
  3827   3458   3516      1
  3828   3458   4030      1
  3829   3459   3460      1
  3830   3459   4098      1
  3831   3460   3462      1
  3832   3460   3522      1
  3833   3461   3462      1
  3834   3461   3463      1
  3835   3462   3527      1
  3836   3464   3465      1
  3837   3467   3533      1
  3838   3468   3470      1
  3839   3468   4042      1
  3840   3469   3472      1
  3841   3470   3471      1
  3842   3470   3472      1
  3843   3471   3473      1
  3844   3471   4048      1
  3845   3472   3475      1
  3846   3473   3474      1
  3847   3473   3543      1
  3848   3476   3479      1
  3849   3477   3479      1
  3850   3477   3551      1
  3851   3477   3554      1
  3852   3479   3480      1
  3853   3480   3481      1
  3854   3480   3482      1
  3855   3482   3555      1
  3856   3482   4058      1
  3857   3486   3487      1
  3858   3486   4066      1
  3859   3486   4071      1
  3860   3487   3489      1
  3861   3488   3489      1
  3862   3489   3491      1
  3863   3490   3491      1
  3864   3490   3492      1
  3865   3490   4071      1
  3866   3491   3493      1
  3867   3492   3568      1
  3868   3492   4138      1
  3869   3493   3494      1
  3870   3493   3495      1
  3871   3495   3497      1
  3872   3495   3568      1
  3873   3496   3498      1
  3874   3498   3499      1
  3875   3498   4010      1
  3876   3499   3500      1
  3877   3499   4075      1
  3878   3501   3502      1
  3879   3502   3503      1
  3880   3503   3504      1
  3881   3503   3505      1
  3882   3505   3508      1
  3883   3506   3581      1
  3884   3507   4019      1
  3885   3508   3509      1
  3886   3508   3512      1
  3887   3510   3511      1
  3888   3511   3582      1
  3889   3511   3587      1
  3890   3512   3513      1
  3891   3513   3515      1
  3892   3513   3518      1
  3893   3514   3516      1
  3894   3516   3518      1
  3895   3517   3520      1
  3896   3518   3522      1
  3897   3519   3521      1
  3898   3520   3521      1
  3899   3520   3523      1
  3900   3521   3596      1
  3901   3523   3524      1
  3902   3524   3525      1
  3903   3525   3526      1
  3904   3525   3596      1
  3905   3526   3531      1
  3906   3526   3598      1
  3907   3527   3528      1
  3908   3527   3530      1
  3909   3528   4098      1
  3910   3528   4104      1
  3911   3529   3531      1
  3912   3533   3534      1
  3913   3534   4110      1
  3914   3535   3536      1
  3915   3535   4108      1
  3916   3535   4110      1
  3917   3536   3538      1
  3918   3537   3539      1
  3919   3538   3539      1
  3920   3538   3541      1
  3921   3539   3542      1
  3922   3540   3541      1
  3923   3540   3543      1
  3924   3540   4115      1
  3925   3541   3545      1
  3926   3541   4118      1
  3927   3542   3546      1
  3928   3543   3544      1
  3929   3546   3550      1
  3930   3547   3548      1
  3931   3547   4123      1
  3932   3549   3552      1
  3933   3552   3553      1
  3934   3552   3554      1
  3935   3553   4123      1
  3936   3553   4126      1
  3937   3554   3555      1
  3938   3555   4128      1
  3939   3556   3557      1
  3940   3557   3559      1
  3941   3558   3560      1
  3942   3559   3560      1
  3943   3560   3562      1
  3944   3562   3563      1
  3945   3562   3565      1
  3946   3564   3565      1
  3947   3565   3566      1
  3948   3568   3569      1
  3949   3568   4072      1
  3950   3569   4139      1
  3951   3569   4143      1
  3952   3570   4143      1
  3953   3571   3572      1
  3954   3572   3574      1
  3955   3573   3574      1
  3956   3574   3576      1
  3957   3575   3578      1
  3958   3578   3580      1
  3959   3578   4154      1
  3960   3579   3580      1
  3961   3580   3581      1
  3962   3581   3582      1
  3963   3582   4156      1
  3964   3583   3584      1
  3965   3584   3585      1
  3966   3585   3586      1
  3967   3585   3590      1
  3968   3587   3588      1
  3969   3587   3589      1
  3970   3588   4158      1
  3971   3588   4161      1
  3972   3590   3592      1
  3973   3591   4161      1
  3974   3592   3593      1
  3975   3594   3597      1
  3976   3596   3597      1
  3977   3597   4166      1
  3978   3598   3604      1
  3979   3598   4166      1
  3980   3599   4170      1
  3981   3601   3603      1
  3982   3602   3603      1
  3983   3604   4170      1
  3984   3605   3606      1
  3985   3605   3607      1
  3986   3607   3609      1
  3987   3609   3610      1
  3988   3609   3672      1
  3989   3611   3612      1
  3990   3612   3615      1
  3991   3613   3614      1
  3992   3614   3615      1
  3993   3614   3618      1
  3994   3615   3617      1
  3995   3616   3617      1
  3996   3617   3619      1
  3997   3618   3620      1
  3998   3618   3621      1
  3999   3619   3620      1
  4000   3620   3623      1
  4001   3622   4123      1
  4002   3622   4125      1
  4003   3623   3625      1
  4004   3623   4181      1
  4005   3624   3626      1
  4006   3624   3683      1
  4007   3626   3627      1
  4008   3626   3687      1
  4009   3628   4136      1
  4010   3629   3631      1
  4011   3629   3699      1
  4012   3629   4193      1
  4013   3630   3632      1
  4014   3630   4195      1
  4015   3631   3633      1
  4016   3631   4195      1
  4017   3632   3636      1
  4018   3633   3635      1
  4019   3633   3636      1
  4020   3636   3639      1
  4021   3637   3641      1
  4022   3638   3639      1
  4023   3639   3643      1
  4024   3641   3644      1
  4025   3642   3644      1
  4026   3644   3646      1
  4027   3646   3648      1
  4028   3647   3648      1
  4029   3648   3649      1
  4030   3649   3650      1
  4031   3649   3651      1
  4032   3653   3654      1
  4033   3654   3657      1
  4034   3655   3656      1
  4035   3656   3726      1
  4036   3656   3731      1
  4037   3657   3659      1
  4038   3657   4223      1
  4039   3658   3659      1
  4040   3658   3660      1
  4041   3658   4164      1
  4042   3659   3661      1
  4043   3660   3662      1
  4044   3661   3663      1
  4045   3661   3664      1
  4046   3662   3664      1
  4047   3663   3666      1
  4048   3663   4226      1
  4049   3667   3669      1
  4050   3668   3738      1
  4051   3669   3670      1
  4052   3669   3672      1
  4053   3671   4234      1
  4054   3672   3673      1
  4055   3674   3675      1
  4056   3675   3678      1
  4057   3675   4236      1
  4058   3676   3677      1
  4059   3677   3679      1
  4060   3678   3680      1
  4061   3678   4242      1
  4062   3679   3680      1
  4063   3679   3681      1
  4064   3680   3682      1
  4065   3681   3683      1
  4066   3682   3684      1
  4067   3682   3685      1
  4068   3683   3684      1
  4069   3684   3686      1
  4070   3687   3689      1
  4071   3688   3690      1
  4072   3688   4249      1
  4073   3688   4250      1
  4074   3689   3690      1
  4075   3689   3694      1
  4076   3690   3693      1
  4077   3691   3693      1
  4078   3692   4250      1
  4079   3693   3756      1
  4080   3696   3698      1
  4081   3696   3699      1
  4082   3696   4261      1
  4083   3697   3698      1
  4084   3697   3762      1
  4085   3697   4262      1
  4086   3698   3701      1
  4087   3699   3702      1
  4088   3704   3705      1
  4089   3705   3706      1
  4090   3705   3768      1
  4091   3706   3707      1
  4092   3706   3708      1
  4093   3708   3709      1
  4094   3708   3711      1
  4095   3709   3770      1
  4096   3710   3712      1
  4097   3712   3713      1
  4098   3712   4276      1
  4099   3713   3714      1
  4100   3713   3715      1
  4101   3714   3719      1
  4102   3714   4279      1
  4103   3715   3716      1
  4104   3715   3718      1
  4105   3716   3717      1
  4106   3716   3720      1
  4107   3719   3720      1
  4108   3719   3777      1
  4109   3720   3721      1
  4110   3721   3780      1
  4111   3723   3725      1
  4112   3724   3726      1
  4113   3725   3728      1
  4114   3725   4286      1
  4115   3726   3729      1
  4116   3727   3729      1
  4117   3728   3730      1
  4118   3728   4290      1
  4119   3729   3733      1
  4120   3731   3734      1
  4121   3731   4292      1
  4122   3733   3734      1
  4123   3733   3735      1
  4124   3734   3737      1
  4125   3735   3738      1
  4126   3736   4363      1
  4127   3737   4295      1
  4128   3739   3851      1
  4129   3741   3743      1
  4130   3741   3789      1
  4131   3742   4299      1
  4132   3744   3745      1
  4133   3745   3746      1
  4134   3746   3747      1
  4135   3748   4310      1
  4136   3749   3801      1
  4137   3750   3751      1
  4138   3751   3753      1
  4139   3752   3753      1
  4140   3753   3754      1
  4141   3754   3757      1
  4142   3755   3756      1
  4143   3755   4249      1
  4144   3755   4323      1
  4145   3756   3757      1
  4146   3757   3758      1
  4147   3758   3759      1
  4148   3758   4326      1
  4149   3760   3761      1
  4150   3761   3764      1
  4151   3761   3810      1
  4152   3763   3764      1
  4153   3764   3767      1
  4154   3765   3766      1
  4155   3766   3768      1
  4156   3767   3814      1
  4157   3767   4340      1
  4158   3768   3770      1
  4159   3769   4340      1
  4160   3771   3773      1
  4161   3772   3822      1
  4162   3773   3774      1
  4163   3774   3822      1
  4164   3774   3827      1
  4165   3775   3776      1
  4166   3775   3777      1
  4167   3775   4348      1
  4168   3777   3779      1
  4169   3778   3779      1
  4170   3779   3780      1
  4171   3781   3782      1
  4172   3782   3783      1
  4173   3782   4353      1
  4174   3783   3784      1
  4175   3783   3836      1
  4176   3784   3785      1
  4177   3784   3786      1
  4178   3786   3787      1
  4179   3786   3839      1
  4180   3788   3848      1
  4181   3790   3792      1
  4182   3790   3853      1
  4183   3791   3792      1
  4184   3791   4370      1
  4185   3792   3795      1
  4186   3793   3794      1
  4187   3793   3797      1
  4188   3793   4370      1
  4189   3795   3797      1
  4190   3795   3798      1
  4191   3796   3798      1
  4192   3796   3853      1
  4193   3797   3800      1
  4194   3798   3799      1
  4195   3802   3803      1
  4196   3802   4381      1
  4197   3802   4382      1
  4198   3803   3804      1
  4199   3803   3805      1
  4200   3805   3806      1
  4201   3805   3861      1
  4202   3809   3810      1
  4203   3810   3812      1
  4204   3811   3813      1
  4205   3812   3813      1
  4206   3812   3814      1
  4207   3813   3815      1
  4208   3814   3818      1
  4209   3815   3817      1
  4210   3815   3873      1
  4211   3817   3818      1
  4212   3817   3820      1
  4213   3818   3819      1
  4214   3819   4404      1
  4215   3820   3821      1
  4216   3820   3874      1
  4217   3820   4401      1
  4218   3821   3823      1
  4219   3821   3877      1
  4220   3822   3824      1
  4221   3823   3825      1
  4222   3824   3825      1
  4223   3824   3826      1
  4224   3824   4404      1
  4225   3825   3828      1
  4226   3827   3828      1
  4227   3828   3830      1
  4228   3829   3830      1
  4229   3830   3831      1
  4230   3831   3832      1
  4231   3833   3835      1
  4232   3833   3837      1
  4233   3833   4415      1
  4234   3834   3837      1
  4235   3836   3838      1
  4236   3836   4416      1
  4237   3837   3838      1
  4238   3838   3839      1
  4239   3839   3840      1
  4240   3841   3842      1
  4241   3841   3843      1
  4242   3841   3844      1
  4243   3844   3846      1
  4244   3844   3848      1
  4245   3845   3849      1
  4246   3846   3847      1
  4247   3846   3849      1
  4248   3847   3898      1
  4249   3848   3851      1
  4250   3850   3851      1
  4251   3852   3853      1
  4252   3854   3855      1
  4253   3855   4431      1
  4254   3855   4434      1
  4255   3856   3857      1
  4256   3857   3912      1
  4257   3857   4434      1
  4258   3858   3859      1
  4259   3860   3917      1
  4260   3861   3862      1
  4261   3861   4438      1
  4262   3862   3863      1
  4263   3862   4443      1
  4264   3864   3866      1
  4265   3864   3928      1
  4266   3864   4450      1
  4267   3865   3868      1
  4268   3865   3928      1
  4269   3865   3932      1
  4270   3866   3869      1
  4271   3866   3870      1
  4272   3868   3870      1
  4273   3869   3871      1
  4274   3869   4454      1
  4275   3870   3872      1
  4276   3875   3878      1
  4277   3875   3943      1
  4278   3875   3944      1
  4279   3876   3878      1
  4280   3876   3879      1
  4281   3876   4466      1
  4282   3878   3881      1
  4283   3879   3883      1
  4284   3879   4406      1
  4285   3880   3881      1
  4286   3881   3882      1
  4287   3881   3884      1
  4288   3882   3949      1
  4289   3883   3884      1
  4290   3883   3885      1
  4291   3884   3886      1
  4292   3887   3888      1
  4293   3887   3889      1
  4294   3888   3890      1
  4295   3888   3951      1
  4296   3889   3891      1
  4297   3890   3892      1
  4298   3890   3956      1
  4299   3891   3892      1
  4300   3891   3893      1
  4301   3892   3894      1
  4302   3894   3895      1
  4303   3894   4481      1
  4304   3895   3896      1
  4305   3895   4489      1
  4306   3897   3898      1
  4307   3898   3899      1
  4308   3900   3901      1
  4309   3900   4500      1
  4310   3902   3903      1
  4311   3902   3905      1
  4312   3903   3904      1
  4313   3904   3906      1
  4314   3904   3970      1
  4315   3907   3909      1
  4316   3907   3910      1
  4317   3908   3910      1
  4318   3910   3911      1
  4319   3912   3913      1
  4320   3912   3914      1
  4321   3913   3918      1
  4322   3913   4510      1
  4323   3915   3916      1
  4324   3915   3919      1
  4325   3915   3979      1
  4326   3916   3978      1
  4327   3918   3919      1
  4328   3918   3920      1
  4329   3918   4515      1
  4330   3919   3921      1
  4331   3919   3923      1
  4332   3922   3923      1
  4333   3922   3924      1
  4334   3923   3925      1
  4335   3926   4520      1
  4336   3927   3928      1
  4337   3927   3929      1
  4338   3927   4526      1
  4339   3929   3930      1
  4340   3929   3931      1
  4341   3931   3932      1
  4342   3931   3934      1
  4343   3932   3933      1
  4344   3934   3936      1
  4345   3934   4000      1
  4346   3935   3936      1
  4347   3936   3937      1
  4348   3937   3939      1
  4349   3937   4005      1
  4350   3938   3939      1
  4351   3939   3940      1
  4352   3942   3943      1
  4353   3943   3946      1
  4354   3943   4465      1
  4355   3945   3947      1
  4356   3947   3948      1
  4357   3947   3949      1
  4358   3948   3950      1
  4359   3949   3951      1
  4360   3950   3952      1
  4361   3950   3953      1
  4362   3951   3952      1
  4363   3952   3954      1
  4364   3954   3956      1
  4365   3954   4550      1
  4366   3955   3957      1
  4367   3955   4024      1
  4368   3956   4479      1
  4369   3957   3959      1
  4370   3958   3960      1
  4371   3958   4024      1
  4372   3958   4026      1
  4373   3959   3960      1
  4374   3959   3961      1
  4375   3960   3962      1
  4376   3963   3964      1
  4377   3963   4028      1
  4378   3963   4639      1
  4379   3965   3966      1
  4380   3965   4034      1
  4381   3966   3967      1
  4382   3967   3968      1
  4383   3967   4038      1
  4384   3970   3971      1
  4385   3972   4573      1
  4386   3973   3975      1
  4387   3974   4576      1
  4388   3975   3976      1
  4389   3976   3977      1
  4390   3976   3978      1
  4391   3977   3979      1
  4392   3979   3980      1
  4393   3981   3982      1
  4394   3981   4053      1
  4395   3981   4584      1
  4396   3983   4588      1
  4397   3984   3986      1
  4398   3985   3986      1
  4399   3985   4056      1
  4400   3985   4061      1
  4401   3986   3988      1
  4402   3987   3988      1
  4403   3988   3989      1
  4404   3989   3990      1
  4405   3989   3992      1
  4406   3990   4061      1
  4407   3990   4065      1
  4408   3991   3992      1
  4409   3992   3993      1
  4410   3992   4596      1
  4411   3993   3994      1
  4412   3993   3995      1
  4413   3993   3997      1
  4414   3994   4065      1
  4415   3994   4599      1
  4416   3998   4000      1
  4417   3999   4002      1
  4418   4000   4003      1
  4419   4001   4605      1
  4420   4002   4003      1
  4421   4002   4004      1
  4422   4003   4005      1
  4423   4006   4007      1
  4424   4006   4605      1
  4425   4006   4610      1
  4426   4008   4009      1
  4427   4009   4010      1
  4428   4009   4013      1
  4429   4010   4080      1
  4430   4011   4013      1
  4431   4012   4614      1
  4432   4013   4014      1
  4433   4014   4015      1
  4434   4014   4017      1
  4435   4015   4080      1
  4436   4015   4088      1
  4437   4016   4086      1
  4438   4017   4018      1
  4439   4017   4020      1
  4440   4019   4020      1
  4441   4019   4088      1
  4442   4020   4021      1
  4443   4021   4022      1
  4444   4022   4023      1
  4445   4022   4024      1
  4446   4025   4026      1
  4447   4026   4028      1
  4448   4027   4029      1
  4449   4027   4094      1
  4450   4027   4096      1
  4451   4028   4556      1
  4452   4029   4030      1
  4453   4029   4033      1
  4454   4030   4031      1
  4455   4031   4034      1
  4456   4032   4033      1
  4457   4032   4637      1
  4458   4032   4694      1
  4459   4033   4035      1
  4460   4034   4036      1
  4461   4035   4036      1
  4462   4035   4037      1
  4463   4036   4038      1
  4464   4038   4040      1
  4465   4039   4641      1
  4466   4041   4042      1
  4467   4042   4046      1
  4468   4043   4045      1
  4469   4044   4045      1
  4470   4044   4047      1
  4471   4044   4114      1
  4472   4045   4046      1
  4473   4046   4048      1
  4474   4047   4048      1
  4475   4047   4115      1
  4476   4048   4049      1
  4477   4050   4053      1
  4478   4051   4052      1
  4479   4052   4054      1
  4480   4052   4654      1
  4481   4053   4054      1
  4482   4054   4659      1
  4483   4055   4058      1
  4484   4057   4060      1
  4485   4058   4059      1
  4486   4058   4063      1
  4487   4060   4061      1
  4488   4060   4662      1
  4489   4062   4063      1
  4490   4062   4128      1
  4491   4062   4131      1
  4492   4063   4064      1
  4493   4064   4066      1
  4494   4064   4068      1
  4495   4065   4666      1
  4496   4067   4068      1
  4497   4068   4069      1
  4498   4068   4070      1
  4499   4070   4071      1
  4500   4070   4134      1
  4501   4073   4074      1
  4502   4074   4078      1
  4503   4074   4079      1
  4504   4075   4076      1
  4505   4075   4081      1
  4506   4077   4078      1
  4507   4078   4082      1
  4508   4079   4083      1
  4509   4079   4147      1
  4510   4080   4081      1
  4511   4081   4085      1
  4512   4082   4086      1
  4513   4082   4682      1
  4514   4083   4152      1
  4515   4083   4682      1
  4516   4084   4085      1
  4517   4085   4087      1
  4518   4086   4683      1
  4519   4087   4088      1
  4520   4087   4089      1
  4521   4090   4092      1
  4522   4091   4093      1
  4523   4092   4093      1
  4524   4092   4094      1
  4525   4093   4689      1
  4526   4094   4095      1
  4527   4096   4689      1
  4528   4096   4694      1
  4529   4097   4098      1
  4530   4099   4169      1
  4531   4099   4700      1
  4532   4099   4770      1
  4533   4100   4102      1
  4534   4101   4102      1
  4535   4101   4105      1
  4536   4101   4700      1
  4537   4102   4103      1
  4538   4102   4106      1
  4539   4105   4704      1
  4540   4106   4169      1
  4541   4109   4110      1
  4542   4110   4115      1
  4543   4111   4113      1
  4544   4112   4113      1
  4545   4112   4707      1
  4546   4112   4711      1
  4547   4113   4116      1
  4548   4116   4117      1
  4549   4116   4119      1
  4550   4119   4120      1
  4551   4119   4713      1
  4552   4120   4121      1
  4553   4120   4122      1
  4554   4122   4716      1
  4555   4122   4717      1
  4556   4124   4125      1
  4557   4125   4127      1
  4558   4126   4127      1
  4559   4126   4128      1
  4560   4127   4129      1
  4561   4129   4130      1
  4562   4129   4131      1
  4563   4131   4132      1
  4564   4133   4134      1
  4565   4134   4138      1
  4566   4135   4137      1
  4567   4136   4137      1
  4568   4137   4140      1
  4569   4138   4139      1
  4570   4139   4140      1
  4571   4140   4141      1
  4572   4141   4142      1
  4573   4142   4143      1
  4574   4142   4146      1
  4575   4143   4145      1
  4576   4144   4147      1
  4577   4146   4148      1
  4578   4147   4148      1
  4579   4148   4150      1
  4580   4149   4150      1
  4581   4150   4151      1
  4582   4150   4152      1
  4583   4152   4757      1
  4584   4154   4155      1
  4585   4154   4156      1
  4586   4155   4157      1
  4587   4156   4158      1
  4588   4157   4159      1
  4589   4158   4159      1
  4590   4159   4160      1
  4591   4160   4162      1
  4592   4161   4162      1
  4593   4162   4163      1
  4594   4165   4770      1
  4595   4166   4167      1
  4596   4168   4169      1
  4597   4170   4172      1
  4598   4171   4707      1
  4599   4174   4778      1
  4600   4175   4176      1
  4601   4175   4784      1
  4602   4176   4177      1
  4603   4176   4788      1
  4604   4178   4179      1
  4605   4178   4788      1
  4606   4178   4790      1
  4607   4180   4181      1
  4608   4181   4182      1
  4609   4183   4792      1
  4610   4184   4246      1
  4611   4186   4255      1
  4612   4187   4190      1
  4613   4188   4191      1
  4614   4189   4193      1
  4615   4190   4191      1
  4616   4190   4194      1
  4617   4191   4196      1
  4618   4192   4195      1
  4619   4193   4260      1
  4620   4194   4197      1
  4621   4196   4198      1
  4622   4196   4805      1
  4623   4197   4198      1
  4624   4197   4200      1
  4625   4198   4199      1
  4626   4199   4201      1
  4627   4199   4265      1
  4628   4200   4202      1
  4629   4201   4202      1
  4630   4201   4205      1
  4631   4202   4203      1
  4632   4202   4204      1
  4633   4205   4206      1
  4634   4205   4273      1
  4635   4207   4208      1
  4636   4208   4210      1
  4637   4208   4211      1
  4638   4209   4211      1
  4639   4210   4215      1
  4640   4211   4212      1
  4641   4212   4216      1
  4642   4212   4217      1
  4643   4214   4216      1
  4644   4215   4217      1
  4645   4216   4218      1
  4646   4217   4219      1
  4647   4218   4220      1
  4648   4218   4284      1
  4649   4219   4220      1
  4650   4220   4221      1
  4651   4222   4223      1
  4652   4223   4226      1
  4653   4224   4225      1
  4654   4225   4228      1
  4655   4226   4227      1
  4656   4230   4233      1
  4657   4231   4232      1
  4658   4232   4234      1
  4659   4232   4235      1
  4660   4233   4235      1
  4661   4233   4845      1
  4662   4234   4236      1
  4663   4235   4237      1
  4664   4236   4238      1
  4665   4237   4238      1
  4666   4237   4239      1
  4667   4238   4240      1
  4668   4238   4309      1
  4669   4239   4241      1
  4670   4239   4848      1
  4671   4240   4242      1
  4672   4240   4243      1
  4673   4241   4243      1
  4674   4241   4851      1
  4675   4243   4244      1
  4676   4245   4246      1
  4677   4245   4247      1
  4678   4245   4248      1
  4679   4246   4250      1
  4680   4247   4249      1
  4681   4247   4251      1
  4682   4251   4252      1
  4683   4251   4324      1
  4684   4253   4256      1
  4685   4254   4257      1
  4686   4255   4256      1
  4687   4255   4260      1
  4688   4256   4258      1
  4689   4257   4258      1
  4690   4257   4330      1
  4691   4258   4259      1
  4692   4259   4261      1
  4693   4259   4262      1
  4694   4260   4261      1
  4695   4262   4331      1
  4696   4263   4265      1
  4697   4264   4265      1
  4698   4264   4805      1
  4699   4264   4865      1
  4700   4266   4267      1
  4701   4267   4268      1
  4702   4267   4336      1
  4703   4268   4269      1
  4704   4268   4271      1
  4705   4269   4272      1
  4706   4269   4339      1
  4707   4270   4271      1
  4708   4271   4274      1
  4709   4272   4275      1
  4710   4272   4872      1
  4711   4274   4275      1
  4712   4274   4276      1
  4713   4276   4277      1
  4714   4277   4278      1
  4715   4277   4279      1
  4716   4279   4348      1
  4717   4280   4281      1
  4718   4281   4283      1
  4719   4281   4285      1
  4720   4282   4283      1
  4721   4283   4286      1
  4722   4285   4354      1
  4723   4285   4355      1
  4724   4286   4287      1
  4725   4287   4355      1
  4726   4287   4359      1
  4727   4288   4292      1
  4728   4289   4291      1
  4729   4290   4359      1
  4730   4290   4363      1
  4731   4291   4889      1
  4732   4291   4892      1
  4733   4291   4893      1
  4734   4292   4293      1
  4735   4293   4295      1
  4736   4294   4893      1
  4737   4296   4299      1
  4738   4296   4367      1
  4739   4297   4368      1
  4740   4298   4300      1
  4741   4298   4904      1
  4742   4299   4301      1
  4743   4300   4301      1
  4744   4300   4305      1
  4745   4301   4304      1
  4746   4302   4307      1
  4747   4303   4305      1
  4748   4305   4909      1
  4749   4306   4307      1
  4750   4306   4308      1
  4751   4306   4373      1
  4752   4307   4310      1
  4753   4308   4311      1
  4754   4308   4378      1
  4755   4310   4312      1
  4756   4311   4312      1
  4757   4311   4315      1
  4758   4312   4314      1
  4759   4313   4314      1
  4760   4314   4317      1
  4761   4315   4316      1
  4762   4315   4914      1
  4763   4316   4317      1
  4764   4316   4318      1
  4765   4317   4319      1
  4766   4320   4321      1
  4767   4321   4325      1
  4768   4321   4388      1
  4769   4322   4324      1
  4770   4323   4324      1
  4771   4323   4326      1
  4772   4325   4326      1
  4773   4325   4327      1
  4774   4327   4328      1
  4775   4327   4392      1
  4776   4329   4330      1
  4777   4330   4331      1
  4778   4331   4332      1
  4779   4333   4334      1
  4780   4334   4337      1
  4781   4334   4934      1
  4782   4335   4336      1
  4783   4336   4337      1
  4784   4337   4339      1
  4785   4338   4398      1
  4786   4339   4867      1
  4787   4340   4341      1
  4788   4341   4342      1
  4789   4341   4398      1
  4790   4342   4343      1
  4791   4342   4344      1
  4792   4344   4346      1
  4793   4344   4402      1
  4794   4345   4348      1
  4795   4346   4347      1
  4796   4346   4409      1
  4797   4349   4350      1
  4798   4350   4351      1
  4799   4350   4412      1
  4800   4351   4353      1
  4801   4351   4416      1
  4802   4352   4353      1
  4803   4355   4356      1
  4804   4356   4357      1
  4805   4356   4942      1
  4806   4357   4358      1
  4807   4357   4360      1
  4808   4359   4360      1
  4809   4360   4361      1
  4810   4361   4364      1
  4811   4361   4365      1
  4812   4362   4425      1
  4813   4363   4365      1
  4814   4364   4368      1
  4815   4364   4948      1
  4816   4365   4366      1
  4817   4369   4370      1
  4818   4371   4373      1
  4819   4372   4374      1
  4820   4373   4374      1
  4821   4374   4376      1
  4822   4375   4377      1
  4823   4376   4378      1
  4824   4376   4955      1
  4825   4377   4380      1
  4826   4377   4435      1
  4827   4378   4959      1
  4828   4379   4380      1
  4829   4380   4382      1
  4830   4382   4438      1
  4831   4383   4385      1
  4832   4384   4386      1
  4833   4385   4386      1
  4834   4385   4387      1
  4835   4386   4388      1
  4836   4387   4389      1
  4837   4387   4973      1
  4838   4388   4390      1
  4839   4389   4390      1
  4840   4389   4391      1
  4841   4390   4392      1
  4842   4391   4393      1
  4843   4391   4975      1
  4844   4392   4394      1
  4845   4393   4394      1
  4846   4393   4395      1
  4847   4394   4397      1
  4848   4396   4454      1
  4849   4398   4399      1
  4850   4399   4402      1
  4851   4399   4986      1
  4852   4400   4401      1
  4853   4401   4406      1
  4854   4401   4464      1
  4855   4402   4405      1
  4856   4403   4404      1
  4857   4405   4408      1
  4858   4405   4991      1
  4859   4406   4407      1
  4860   4406   4467      1
  4861   4408   4409      1
  4862   4408   4411      1
  4863   4409   4412      1
  4864   4410   4413      1
  4865   4411   4414      1
  4866   4411   4994      1
  4867   4412   4413      1
  4868   4413   4415      1
  4869   4415   4416      1
  4870   4417   4418      1
  4871   4418   4483      1
  4872   4418   5064      1
  4873   4419   4420      1
  4874   4420   4422      1
  4875   4420   5000      1
  4876   4421   4422      1
  4877   4422   4424      1
  4878   4423   4488      1
  4879   4424   4425      1
  4880   4424   5007      1
  4881   4425   4426      1
  4882   4426   4427      1
  4883   4426   5013      1
  4884   4428   4431      1
  4885   4429   5018      1
  4886   4430   4432      1
  4887   4431   4432      1
  4888   4432   4433      1
  4889   4433   4507      1
  4890   4433   4508      1
  4891   4434   4507      1
  4892   4435   4436      1
  4893   4435   4437      1
  4894   4436   4439      1
  4895   4436   5022      1
  4896   4437   4438      1
  4897   4437   4440      1
  4898   4439   4441      1
  4899   4439   5025      1
  4900   4440   4441      1
  4901   4440   4443      1
  4902   4441   4442      1
  4903   4443   4445      1
  4904   4444   4517      1
  4905   4446   4447      1
  4906   4446   4517      1
  4907   4446   5094      1
  4908   4448   4449      1
  4909   4449   4450      1
  4910   4449   4526      1
  4911   4450   4452      1
  4912   4451   4452      1
  4913   4452   4454      1
  4914   4453   4455      1
  4915   4453   4527      1
  4916   4453   5036      1
  4917   4455   4456      1
  4918   4455   4531      1
  4919   4456   4457      1
  4920   4456   5040      1
  4921   4457   4458      1
  4922   4457   4459      1
  4923   4458   4462      1
  4924   4458   4532      1
  4925   4459   4461      1
  4926   4459   5045      1
  4927   4460   4463      1
  4928   4462   4463      1
  4929   4462   4535      1
  4930   4463   4464      1
  4931   4464   4466      1
  4932   4465   4466      1
  4933   4465   4535      1
  4934   4468   4545      1
  4935   4469   4473      1
  4936   4469   4543      1
  4937   4469   5058      1
  4938   4470   4471      1
  4939   4470   4475      1
  4940   4470   5059      1
  4941   4472   4474      1
  4942   4473   4474      1
  4943   4473   4475      1
  4944   4474   4545      1
  4945   4475   4476      1
  4946   4477   4478      1
  4947   4477   4480      1
  4948   4477   5061      1
  4949   4478   4482      1
  4950   4478   5063      1
  4951   4479   4481      1
  4952   4479   4552      1
  4953   4480   4485      1
  4954   4480   4552      1
  4955   4481   4484      1
  4956   4482   4483      1
  4957   4482   4484      1
  4958   4483   4488      1
  4959   4484   4487      1
  4960   4485   4486      1
  4961   4485   5121      1
  4962   4487   4489      1
  4963   4487   4490      1
  4964   4488   4490      1
  4965   4489   4491      1
  4966   4490   4493      1
  4967   4492   4494      1
  4968   4493   4494      1
  4969   4493   4496      1
  4970   4494   5074      1
  4971   4495   4496      1
  4972   4496   4497      1
  4973   4497   4498      1
  4974   4498   5074      1
  4975   4499   4500      1
  4976   4500   4570      1
  4977   4502   4506      1
  4978   4504   4505      1
  4979   4504   5078      1
  4980   4507   4510      1
  4981   4508   4509      1
  4982   4508   5083      1
  4983   4509   4511      1
  4984   4509   4512      1
  4985   4510   4512      1
  4986   4512   4513      1
  4987   4513   4514      1
  4988   4513   4515      1
  4989   4515   4516      1
  4990   4516   4518      1
  4991   4516   4520      1
  4992   4517   4518      1
  4993   4518   4519      1
  4994   4519   4521      1
  4995   4519   5095      1
  4996   4520   4522      1
  4997   4521   4522      1
  4998   4521   4593      1
  4999   4522   4596      1
  5000   4523   4526      1
  5001   4524   4527      1
  5002   4525   4528      1
  5003   4527   4528      1
  5004   4528   4529      1
  5005   4529   4530      1
  5006   4529   4531      1
  5007   4531   4532      1
  5008   4532   4533      1
  5009   4534   4535      1
  5010   4536   4537      1
  5011   4537   4539      1
  5012   4537   4540      1
  5013   4538   4539      1
  5014   4539   4541      1
  5015   4540   4543      1
  5016   4540   5052      1
  5017   4541   4542      1
  5018   4541   4544      1
  5019   4543   4544      1
  5020   4544   4545      1
  5021   4545   4546      1
  5022   4547   4548      1
  5023   4547   4620      1
  5024   4547   4624      1
  5025   4548   4549      1
  5026   4548   4551      1
  5027   4549   5114      1
  5028   4549   5115      1
  5029   4551   4553      1
  5030   4551   4554      1
  5031   4552   4553      1
  5032   4553   4555      1
  5033   4554   4556      1
  5034   4554   4627      1
  5035   4555   4556      1
  5036   4555   4558      1
  5037   4557   4562      1
  5038   4557   4632      1
  5039   4557   5119      1
  5040   4558   4559      1
  5041   4558   4560      1
  5042   4559   4561      1
  5043   4559   4563      1
  5044   4562   5124      1
  5045   4563   4564      1
  5046   4563   4565      1
  5047   4565   4567      1
  5048   4565   4569      1
  5049   4566   4568      1
  5050   4566   4639      1
  5051   4566   4643      1
  5052   4567   5124      1
  5053   4567   5128      1
  5054   4569   4570      1
  5055   4570   4571      1
  5056   4572   4575      1
  5057   4572   4647      1
  5058   4572   5132      1
  5059   4573   4574      1
  5060   4573   4648      1
  5061   4574   4575      1
  5062   4574   4576      1
  5063   4575   4577      1
  5064   4576   4578      1
  5065   4577   4579      1
  5066   4577   5135      1
  5067   4578   4579      1
  5068   4578   4580      1
  5069   4579   4581      1
  5070   4581   4582      1
  5071   4581   5140      1
  5072   4583   4585      1
  5073   4583   4587      1
  5074   4583   4660      1
  5075   4584   4585      1
  5076   4584   4588      1
  5077   4585   4659      1
  5078   4586   4587      1
  5079   4587   4589      1
  5080   4588   4589      1
  5081   4589   4590      1
  5082   4591   4595      1
  5083   4592   4594      1
  5084   4593   4595      1
  5085   4593   5146      1
  5086   4594   4595      1
  5087   4594   4596      1
  5088   4595   4597      1
  5089   4598   4600      1
  5090   4599   4601      1
  5091   4599   4670      1
  5092   4600   4601      1
  5093   4600   4602      1
  5094   4601   4603      1
  5095   4602   4604      1
  5096   4602   5152      1
  5097   4603   4605      1
  5098   4603   4606      1
  5099   4604   4606      1
  5100   4604   4607      1
  5101   4606   4609      1
  5102   4607   4611      1
  5103   4607   5153      1
  5104   4608   4609      1
  5105   4609   4610      1
  5106   4609   4612      1
  5107   4610   4614      1
  5108   4611   4612      1
  5109   4611   4613      1
  5110   4612   4615      1
  5111   4614   4616      1
  5112   4615   4616      1
  5113   4615   4617      1
  5114   4616   4618      1
  5115   4619   4683      1
  5116   4621   4623      1
  5117   4622   4624      1
  5118   4623   4625      1
  5119   4623   5161      1
  5120   4624   4627      1
  5121   4625   4629      1
  5122   4625   5168      1
  5123   4626   4627      1
  5124   4628   4629      1
  5125   4629   4630      1
  5126   4629   4631      1
  5127   4631   4632      1
  5128   4631   4633      1
  5129   4632   5169      1
  5130   4634   4635      1
  5131   4635   4636      1
  5132   4635   4693      1
  5133   4636   4637      1
  5134   4636   4638      1
  5135   4637   4640      1
  5136   4639   4640      1
  5137   4640   4641      1
  5138   4641   4645      1
  5139   4642   4702      1
  5140   4643   4644      1
  5141   4643   4645      1
  5142   4646   4647      1
  5143   4647   4648      1
  5144   4649   4650      1
  5145   4650   4652      1
  5146   4650   4710      1
  5147   4651   4652      1
  5148   4652   4714      1
  5149   4653   4655      1
  5150   4654   4655      1
  5151   4654   4716      1
  5152   4655   4656      1
  5153   4656   4657      1
  5154   4656   4659      1
  5155   4657   4658      1
  5156   4657   4660      1
  5157   4660   5143      1
  5158   4661   4662      1
  5159   4662   4666      1
  5160   4663   4664      1
  5161   4664   4665      1
  5162   4664   5197      1
  5163   4665   4668      1
  5164   4665   4724      1
  5165   4666   4669      1
  5166   4667   4668      1
  5167   4668   4669      1
  5168   4668   4671      1
  5169   4669   4670      1
  5170   4670   4672      1
  5171   4671   4673      1
  5172   4671   4730      1
  5173   4673   4675      1
  5174   4673   4735      1
  5175   4674   4675      1
  5176   4675   4676      1
  5177   4676   4678      1
  5178   4676   4741      1
  5179   4677   4678      1
  5180   4678   4679      1
  5181   4679   4680      1
  5182   4679   4748      1
  5183   4681   5221      1
  5184   4682   4684      1
  5185   4683   4685      1
  5186   4684   4685      1
  5187   4684   4686      1
  5188   4685   4687      1
  5189   4686   4757      1
  5190   4686   4759      1
  5191   4688   4690      1
  5192   4689   4690      1
  5193   4690   4691      1
  5194   4691   4692      1
  5195   4691   4693      1
  5196   4693   4694      1
  5197   4695   4696      1
  5198   4696   4697      1
  5199   4696   4701      1
  5200   4697   4698      1
  5201   4697   4699      1
  5202   4698   4770      1
  5203   4698   4773      1
  5204   4699   4700      1
  5205   4699   4703      1
  5206   4701   4702      1
  5207   4701   5244      1
  5208   4702   4703      1
  5209   4703   4704      1
  5210   4705   4775      1
  5211   4706   4709      1
  5212   4709   4710      1
  5213   4710   4711      1
  5214   4711   4713      1
  5215   4713   4714      1
  5216   4714   4716      1
  5217   4715   5261      1
  5218   4718   4720      1
  5219   4719   4721      1
  5220   4720   4721      1
  5221   4720   4723      1
  5222   4721   4724      1
  5223   4721   5267      1
  5224   4722   4723      1
  5225   4723   4725      1
  5226   4724   4726      1
  5227   4725   4726      1
  5228   4725   4727      1
  5229   4726   4730      1
  5230   4727   4729      1
  5231   4728   4729      1
  5232   4729   4731      1
  5233   4730   4731      1
  5234   4731   4732      1
  5235   4733   4735      1
  5236   4734   4736      1
  5237   4735   4737      1
  5238   4736   4738      1
  5239   4736   4740      1
  5240   4737   4738      1
  5241   4737   4741      1
  5242   4738   4742      1
  5243   4738   5281      1
  5244   4739   4740      1
  5245   4740   4743      1
  5246   4741   4745      1
  5247   4742   4747      1
  5248   4743   4746      1
  5249   4745   4747      1
  5250   4745   4748      1
  5251   4747   4749      1
  5252   4748   4750      1
  5253   4749   4751      1
  5254   4749   4752      1
  5255   4750   4751      1
  5256   4750   4753      1
  5257   4751   4754      1
  5258   4755   4756      1
  5259   4756   4758      1
  5260   4757   4758      1
  5261   4758   4760      1
  5262   4760   4761      1
  5263   4760   4762      1
  5264   4762   4763      1
  5265   4763   4764      1
  5266   4763   4765      1
  5267   4765   4766      1
  5268   4766   4768      1
  5269   4767   4768      1
  5270   4768   4769      1
  5271   4769   4772      1
  5272   4771   4773      1
  5273   4772   4774      1
  5274   4772   5311      1
  5275   4773   4775      1
  5276   4774   4775      1
  5277   4774   4776      1
  5278   4776   5313      1
  5279   4777   4778      1
  5280   4778   4780      1
  5281   4779   4782      1
  5282   4780   4782      1
  5283   4780   4783      1
  5284   4781   5319      1
  5285   4782   4785      1
  5286   4783   4784      1
  5287   4783   4786      1
  5288   4785   4787      1
  5289   4785   4847      1
  5290   4786   4787      1
  5291   4786   4788      1
  5292   4787   4789      1
  5293   4789   4790      1
  5294   4789   4850      1
  5295   4790   4852      1
  5296   4791   4793      1
  5297   4791   4856      1
  5298   4791   5326      1
  5299   4792   4795      1
  5300   4792   4855      1
  5301   4793   4794      1
  5302   4793   4795      1
  5303   4794   4796      1
  5304   4794   5329      1
  5305   4795   4797      1
  5306   4796   4798      1
  5307   4797   4798      1
  5308   4797   4799      1
  5309   4800   4801      1
  5310   4800   4864      1
  5311   4800   5415      1
  5312   4801   4802      1
  5313   4801   5335      1
  5314   4802   4804      1
  5315   4802   4806      1
  5316   4803   4805      1
  5317   4803   4806      1
  5318   4803   4864      1
  5319   4804   4808      1
  5320   4804   5337      1
  5321   4806   4809      1
  5322   4807   5418      1
  5323   4808   4810      1
  5324   4809   4810      1
  5325   4809   4811      1
  5326   4810   4812      1
  5327   4813   4815      1
  5328   4813   4871      1
  5329   4813   5347      1
  5330   4814   4815      1
  5331   4815   4816      1
  5332   4816   4817      1
  5333   4816   5352      1
  5334   4817   4819      1
  5335   4818   4820      1
  5336   4819   4823      1
  5337   4820   4822      1
  5338   4820   4875      1
  5339   4821   4822      1
  5340   4821   4823      1
  5341   4821   5359      1
  5342   4822   4824      1
  5343   4822   4876      1
  5344   4823   4825      1
  5345   4825   4826      1
  5346   4828   5377      1
  5347   4829   4830      1
  5348   4830   4833      1
  5349   4831   4833      1
  5350   4831   4836      1
  5351   4831   5380      1
  5352   4832   4835      1
  5353   4833   4835      1
  5354   4834   4835      1
  5355   4835   4837      1
  5356   4836   4838      1
  5357   4836   4897      1
  5358   4839   4841      1
  5359   4841   4842      1
  5360   4841   4843      1
  5361   4843   4846      1
  5362   4843   5462      1
  5363   4844   4845      1
  5364   4845   4848      1
  5365   4848   4849      1
  5366   4853   4854      1
  5367   4853   4918      1
  5368   4853   4922      1
  5369   4854   4858      1
  5370   4854   5397      1
  5371   4855   4856      1
  5372   4855   4857      1
  5373   4856   4858      1
  5374   4858   5406      1
  5375   4859   4922      1
  5376   4860   4931      1
  5377   4861   4863      1
  5378   4861   4930      1
  5379   4861   4931      1
  5380   4862   4864      1
  5381   4866   5419      1
  5382   4867   4868      1
  5383   4867   4936      1
  5384   4868   4869      1
  5385   4868   4872      1
  5386   4870   4871      1
  5387   4871   5428      1
  5388   4872   4873      1
  5389   4874   4875      1
  5390   4875   4877      1
  5391   4876   4878      1
  5392   4876   5360      1
  5393   4877   4878      1
  5394   4877   4880      1
  5395   4878   5440      1
  5396   4879   4880      1
  5397   4880   4881      1
  5398   4881   4882      1
  5399   4881   5441      1
  5400   4882   4884      1
  5401   4882   4938      1
  5402   4883   4884      1
  5403   4884   4885      1
  5404   4885   4886      1
  5405   4885   4940      1
  5406   4886   4887      1
  5407   4886   4889      1
  5408   4888   4889      1
  5409   4888   4940      1
  5410   4888   4946      1
  5411   4890   4891      1
  5412   4891   4894      1
  5413   4891   5513      1
  5414   4893   4895      1
  5415   4893   4947      1
  5416   4894   4895      1
  5417   4894   4900      1
  5418   4895   4899      1
  5419   4896   4898      1
  5420   4897   4901      1
  5421   4897   5454      1
  5422   4898   4899      1
  5423   4898   4901      1
  5424   4898   4902      1
  5425   4900   5519      1
  5426   4903   4905      1
  5427   4903   4906      1
  5428   4904   4907      1
  5429   4906   4907      1
  5430   4906   4908      1
  5431   4907   4909      1
  5432   4909   4910      1
  5433   4911   4912      1
  5434   4912   4913      1
  5435   4912   4915      1
  5436   4913   4917      1
  5437   4913   5468      1
  5438   4914   4916      1
  5439   4914   4959      1
  5440   4915   4916      1
  5441   4915   4920      1
  5442   4916   4919      1
  5443   4917   4918      1
  5444   4917   4919      1
  5445   4918   5396      1
  5446   4919   4921      1
  5447   4921   4922      1
  5448   4921   4923      1
  5449   4924   4927      1
  5450   4924   4974      1
  5451   4924   5483      1
  5452   4925   4927      1
  5453   4925   4930      1
  5454   4925   5482      1
  5455   4926   4928      1
  5456   4926   4974      1
  5457   4926   4978      1
  5458   4927   4929      1
  5459   4928   4929      1
  5460   4928   4932      1
  5461   4929   4931      1
  5462   4930   5412      1
  5463   4933   4934      1
  5464   4934   4936      1
  5465   4935   4936      1
  5466   4937   4938      1
  5467   4938   4939      1
  5468   4939   4940      1
  5469   4939   4943      1
  5470   4941   4943      1
  5471   4943   4944      1
  5472   4944   4945      1
  5473   4944   4946      1
  5474   4946   4947      1
  5475   4947   4948      1
  5476   4948   4950      1
  5477   4949   4951      1
  5478   4950   4951      1
  5479   4952   4953      1
  5480   4952   5521      1
  5481   4953   4954      1
  5482   4953   5021      1
  5483   4954   4956      1
  5484   4954   5525      1
  5485   4956   4957      1
  5486   4956   4960      1
  5487   4958   4959      1
  5488   4960   4962      1
  5489   4960   5530      1
  5490   4961   4964      1
  5491   4963   4965      1
  5492   4964   4965      1
  5493   4964   4966      1
  5494   4965   4967      1
  5495   4966   4968      1
  5496   4966   5025      1
  5497   4967   4969      1
  5498   4967   4970      1
  5499   4968   4970      1
  5500   4968   5029      1
  5501   4970   4972      1
  5502   4971   4973      1
  5503   4972   5536      1
  5504   4972   5537      1
  5505   4973   5033      1
  5506   4974   4976      1
  5507   4975   4979      1
  5508   4975   5033      1
  5509   4976   4977      1
  5510   4976   5544      1
  5511   4980   4981      1
  5512   4981   4982      1
  5513   4981   5548      1
  5514   4983   4985      1
  5515   4984   4986      1
  5516   4985   4987      1
  5517   4985   5049      1
  5518   4986   4988      1
  5519   4987   4990      1
  5520   4987   5554      1
  5521   4988   4989      1
  5522   4988   4991      1
  5523   4990   5054      1
  5524   4990   5561      1
  5525   4991   4992      1
  5526   4992   4993      1
  5527   4992   4994      1
  5528   4994   4995      1
  5529   4996   4998      1
  5530   4997   4999      1
  5531   4998   4999      1
  5532   4998   5000      1
  5533   4999   5001      1
  5534   5000   5003      1
  5535   5001   5002      1
  5536   5001   5005      1
  5537   5002   5004      1
  5538   5002   5581      1
  5539   5003   5005      1
  5540   5003   5007      1
  5541   5004   5006      1
  5542   5004   5067      1
  5543   5005   5008      1
  5544   5007   5010      1
  5545   5008   5009      1
  5546   5008   5011      1
  5547   5010   5011      1
  5548   5010   5013      1
  5549   5011   5012      1
  5550   5013   5014      1
  5551   5016   5020      1
  5552   5016   5077      1
  5553   5017   5018      1
  5554   5017   5019      1
  5555   5023   5688      1
  5556   5024   5026      1
  5557   5025   5026      1
  5558   5026   5027      1
  5559   5027   5028      1
  5560   5027   5029      1
  5561   5029   5030      1
  5562   5030   5537      1
  5563   5030   5617      1
  5564   5031   5033      1
  5565   5032   5034      1
  5566   5034   5099      1
  5567   5034   5622      1
  5568   5035   5036      1
  5569   5036   5038      1
  5570   5037   5038      1
  5571   5038   5040      1
  5572   5039   5041      1
  5573   5039   5101      1
  5574   5039   5627      1
  5575   5040   5043      1
  5576   5041   5044      1
  5577   5041   5105      1
  5578   5042   5043      1
  5579   5043   5045      1
  5580   5044   5047      1
  5581   5044   5631      1
  5582   5045   5048      1
  5583   5046   5049      1
  5584   5047   5108      1
  5585   5047   5635      1
  5586   5049   5051      1
  5587   5050   5052      1
  5588   5051   5053      1
  5589   5051   5054      1
  5590   5052   5055      1
  5591   5053   5055      1
  5592   5053   5057      1
  5593   5054   5642      1
  5594   5055   5058      1
  5595   5056   5059      1
  5596   5057   5060      1
  5597   5057   5110      1
  5598   5058   5059      1
  5599   5060   5642      1
  5600   5060   5646      1
  5601   5062   5063      1
  5602   5063   5064      1
  5603   5064   5065      1
  5604   5066   5068      1
  5605   5067   5069      1
  5606   5067   5657      1
  5607   5068   5070      1
  5608   5068   5121      1
  5609   5070   5072      1
  5610   5071   5073      1
  5611   5072   5073      1
  5612   5072   5075      1
  5613   5073   5667      1
  5614   5074   5075      1
  5615   5075   5076      1
  5616   5078   5080      1
  5617   5079   5080      1
  5618   5079   5672      1
  5619   5080   5081      1
  5620   5080   5082      1
  5621   5084   5085      1
  5622   5085   5086      1
  5623   5085   5682      1
  5624   5086   5087      1
  5625   5086   5685      1
  5626   5088   5140      1
  5627   5089   5090      1
  5628   5090   5091      1
  5629   5090   5144      1
  5630   5091   5092      1
  5631   5091   5693      1
  5632   5093   5094      1
  5633   5094   5095      1
  5634   5095   5096      1
  5635   5096   5097      1
  5636   5096   5146      1
  5637   5098   5099      1
  5638   5099   5101      1
  5639   5100   5102      1
  5640   5101   5102      1
  5641   5102   5104      1
  5642   5103   5104      1
  5643   5104   5105      1
  5644   5105   5106      1
  5645   5106   5107      1
  5646   5106   5108      1
  5647   5108   5109      1
  5648   5111   5112      1
  5649   5111   5113      1
  5650   5111   5114      1
  5651   5116   5118      1
  5652   5116   5726      1
  5653   5116   5731      1
  5654   5117   5119      1
  5655   5119   5120      1
  5656   5120   5171      1
  5657   5120   5172      1
  5658   5121   5122      1
  5659   5123   5737      1
  5660   5124   5125      1
  5661   5125   5126      1
  5662   5125   5176      1
  5663   5126   5128      1
  5664   5126   5129      1
  5665   5127   5740      1
  5666   5129   5179      1
  5667   5130   5132      1
  5668   5131   5746      1
  5669   5132   5133      1
  5670   5133   5134      1
  5671   5133   5135      1
  5672   5135   5138      1
  5673   5136   5823      1
  5674   5137   5754      1
  5675   5138   5139      1
  5676   5138   5140      1
  5677   5141   5142      1
  5678   5142   5144      1
  5679   5142   5761      1
  5680   5144   5764      1
  5681   5145   5146      1
  5682   5147   5148      1
  5683   5147   5149      1
  5684   5147   5772      1
  5685   5149   5150      1
  5686   5149   5204      1
  5687   5150   5151      1
  5688   5150   5209      1
  5689   5154   5220      1
  5690   5154   5787      1
  5691   5154   5790      1
  5692   5155   5157      1
  5693   5155   5220      1
  5694   5155   5223      1
  5695   5156   5158      1
  5696   5157   5158      1
  5697   5157   5159      1
  5698   5158   5790      1
  5699   5160   5161      1
  5700   5161   5163      1
  5701   5162   5163      1
  5702   5162   5796      1
  5703   5163   5166      1
  5704   5164   5167      1
  5705   5165   5231      1
  5706   5166   5167      1
  5707   5166   5168      1
  5708   5167   5170      1
  5709   5167   5802      1
  5710   5168   5169      1
  5711   5169   5171      1
  5712   5170   5171      1
  5713   5170   5805      1
  5714   5173   5175      1
  5715   5174   5242      1
  5716   5175   5176      1
  5717   5175   5177      1
  5718   5178   5179      1
  5719   5180   5247      1
  5720   5181   5182      1
  5721   5182   5183      1
  5722   5182   5819      1
  5723   5183   5184      1
  5724   5183   5185      1
  5725   5185   5187      1
  5726   5185   5258      1
  5727   5186   5187      1
  5728   5187   5261      1
  5729   5188   5190      1
  5730   5189   5190      1
  5731   5189   5823      1
  5732   5189   5827      1
  5733   5190   5191      1
  5734   5190   5192      1
  5735   5192   5193      1
  5736   5192   5194      1
  5737   5194   5195      1
  5738   5194   5830      1
  5739   5195   5265      1
  5740   5195   5903      1
  5741   5196   5199      1
  5742   5197   5198      1
  5743   5197   5267      1
  5744   5199   5201      1
  5745   5199   5836      1
  5746   5200   5202      1
  5747   5201   5202      1
  5748   5201   5203      1
  5749   5202   5205      1
  5750   5203   5204      1
  5751   5203   5206      1
  5752   5204   5838      1
  5753   5205   5207      1
  5754   5205   5208      1
  5755   5206   5207      1
  5756   5206   5209      1
  5757   5207   5211      1
  5758   5209   5210      1
  5759   5212   5214      1
  5760   5213   5216      1
  5761   5214   5215      1
  5762   5214   5216      1
  5763   5215   5217      1
  5764   5215   5853      1
  5765   5216   5218      1
  5766   5217   5219      1
  5767   5217   5856      1
  5768   5218   5219      1
  5769   5218   5221      1
  5770   5219   5220      1
  5771   5221   5223      1
  5772   5222   5288      1
  5773   5223   5224      1
  5774   5225   5226      1
  5775   5225   5288      1
  5776   5225   5291      1
  5777   5227   5228      1
  5778   5227   5230      1
  5779   5227   5864      1
  5780   5228   5229      1
  5781   5228   5231      1
  5782   5230   5233      1
  5783   5230   5300      1
  5784   5231   5232      1
  5785   5232   5233      1
  5786   5232   5235      1
  5787   5233   5234      1
  5788   5233   5236      1
  5789   5236   5238      1
  5790   5236   5306      1
  5791   5237   5238      1
  5792   5238   5239      1
  5793   5239   5240      1
  5794   5239   5241      1
  5795   5240   5242      1
  5796   5240   5872      1
  5797   5241   5308      1
  5798   5241   5875      1
  5799   5242   5243      1
  5800   5243   5875      1
  5801   5243   5878      1
  5802   5246   5312      1
  5803   5247   5250      1
  5804   5248   5251      1
  5805   5248   5252      1
  5806   5249   5250      1
  5807   5249   5253      1
  5808   5249   5887      1
  5809   5250   5251      1
  5810   5251   5255      1
  5811   5253   5256      1
  5812   5254   5255      1
  5813   5255   5256      1
  5814   5256   5257      1
  5815   5258   5259      1
  5816   5258   5822      1
  5817   5259   5260      1
  5818   5259   5262      1
  5819   5260   5261      1
  5820   5260   5263      1
  5821   5262   5264      1
  5822   5262   5895      1
  5823   5266   5267      1
  5824   5268   5270      1
  5825   5269   5270      1
  5826   5269   5905      1
  5827   5269   5910      1
  5828   5270   5272      1
  5829   5272   5273      1
  5830   5272   5274      1
  5831   5273   5276      1
  5832   5274   5275      1
  5833   5274   5278      1
  5834   5275   5910      1
  5835   5275   5916      1
  5836   5276   5277      1
  5837   5276   5278      1
  5838   5278   5279      1
  5839   5279   5280      1
  5840   5279   5282      1
  5841   5280   5916      1
  5842   5280   5920      1
  5843   5284   5286      1
  5844   5285   5287      1
  5845   5286   5288      1
  5846   5286   5289      1
  5847   5287   5289      1
  5848   5289   5290      1
  5849   5290   5291      1
  5850   5290   5292      1
  5851   5291   5293      1
  5852   5292   5295      1
  5853   5293   5294      1
  5854   5293   5296      1
  5855   5295   5296      1
  5856   5295   5297      1
  5857   5296   5298      1
  5858   5299   5938      1
  5859   5300   5301      1
  5860   5300   5937      1
  5861   5302   5939      1
  5862   5303   5305      1
  5863   5304   5307      1
  5864   5305   5306      1
  5865   5305   5307      1
  5866   5306   5308      1
  5867   5307   5947      1
  5868   5308   5950      1
  5869   5309   5310      1
  5870   5310   5311      1
  5871   5314   5316      1
  5872   5315   5318      1
  5873   5316   5318      1
  5874   5316   5320      1
  5875   5317   5319      1
  5876   5318   5321      1
  5877   5320   5323      1
  5878   5320   5386      1
  5879   5321   5322      1
  5880   5321   5324      1
  5881   5322   5894      1
  5882   5323   5324      1
  5883   5323   5390      1
  5884   5324   5325      1
  5885   5326   5328      1
  5886   5326   5405      1
  5887   5327   5328      1
  5888   5328   5329      1
  5889   5329   5330      1
  5890   5332   5334      1
  5891   5333   5334      1
  5892   5333   5410      1
  5893   5333   5415      1
  5894   5334   5335      1
  5895   5335   5336      1
  5896   5336   5337      1
  5897   5336   5914      1
  5898   5338   5340      1
  5899   5339   5342      1
  5900   5340   5341      1
  5901   5340   5342      1
  5902   5341   5418      1
  5903   5341   5425      1
  5904   5344   5425      1
  5905   5346   5347      1
  5906   5346   5350      1
  5907   5346   5352      1
  5908   5347   5348      1
  5909   5348   5351      1
  5910   5348   5429      1
  5911   5349   5350      1
  5912   5349   5351      1
  5913   5350   5353      1
  5914   5351   5433      1
  5915   5352   5354      1
  5916   5355   5357      1
  5917   5357   5359      1
  5918   5357   5360      1
  5919   5358   5359      1
  5920   5360   5437      1
  5921   5362   5363      1
  5922   5362   5439      1
  5923   5364   5365      1
  5924   5365   5366      1
  5925   5365   5369      1
  5926   5368   5370      1
  5927   5369   5370      1
  5928   5370   5372      1
  5929   5371   5447      1
  5930   5373   5375      1
  5931   5373   5447      1
  5932   5373   5450      1
  5933   5374   5375      1
  5934   5375   5377      1
  5935   5376   5378      1
  5936   5377   5380      1
  5937   5379   5380      1
  5938   5379   5450      1
  5939   5379   5454      1
  5940   5381   5383      1
  5941   5382   5384      1
  5942   5383   5384      1
  5943   5385   5386      1
  5944   5386   5388      1
  5945   5387   5388      1
  5946   5388   5389      1
  5947   5391   5393      1
  5948   5392   5395      1
  5949   5393   5396      1
  5950   5393   5468      1
  5951   5394   5471      1
  5952   5395   5396      1
  5953   5395   5397      1
  5954   5397   5401      1
  5955   5398   5400      1
  5956   5398   5402      1
  5957   5398   5471      1
  5958   5402   5404      1
  5959   5402   5476      1
  5960   5407   5408      1
  5961   5407   5409      1
  5962   5409   5414      1
  5963   5411   5414      1
  5964   5413   5415      1
  5965   5414   5416      1
  5966   5416   5417      1
  5967   5418   5419      1
  5968   5419   5422      1
  5969   5420   5422      1
  5970   5420   5423      1
  5971   5420   5425      1
  5972   5421   5422      1
  5973   5421   5426      1
  5974   5421   5486      1
  5975   5423   5424      1
  5976   5424   5486      1
  5977   5427   5428      1
  5978   5428   5429      1
  5979   5429   5431      1
  5980   5430   5431      1
  5981   5431   5432      1
  5982   5432   5433      1
  5983   5432   5434      1
  5984   5435   5438      1
  5985   5437   5438      1
  5986   5437   5439      1
  5987   5438   5440      1
  5988   5440   5441      1
  5989   5441   5442      1
  5990   5443   5444      1
  5991   5444   5503      1
  5992   5445   5446      1
  5993   5446   5448      1
  5994   5447   5448      1
  5995   5448   5449      1
  5996   5449   5451      1
  5997   5449   5452      1
  5998   5450   5452      1
  5999   5452   5453      1
  6000   5453   5455      1
  6001   5453   5456      1
  6002   5454   5456      1
  6003   5456   5458      1
  6004   5457   5459      1
  6005   5460   5461      1
  6006   5461   5464      1
  6007   5462   5464      1
  6008   5464   5465      1
  6009   5467   5468      1
  6010   5469   5470      1
  6011   5469   5472      1
  6012   5470   5473      1
  6013   5471   5472      1
  6014   5472   5474      1
  6015   5473   5475      1
  6016   5473   5534      1
  6017   5474   5475      1
  6018   5474   5476      1
  6019   5475   5477      1
  6020   5476   5478      1
  6021   5477   5479      1
  6022   5477   5538      1
  6023   5478   5479      1
  6024   5478   5480      1
  6025   5479   5481      1
  6026   5481   5482      1
  6027   5481   5483      1
  6028   5482   5484      1
  6029   5483   5543      1
  6030   5485   5486      1
  6031   5487   5489      1
  6032   5489   5493      1
  6033   5490   5492      1
  6034   5491   5492      1
  6035   5492   5493      1
  6036   5492   5494      1
  6037   5493   5495      1
  6038   5495   5496      1
  6039   5496   5497      1
  6040   5496   5498      1
  6041   5497   5562      1
  6042   5497   5568      1
  6043   5498   5499      1
  6044   5499   5500      1
  6045   5499   5501      1
  6046   5500   5502      1
  6047   5500   5568      1
  6048   5503   5504      1
  6049   5503   5505      1
  6050   5505   5506      1
  6051   5506   5507      1
  6052   5506   5508      1
  6053   5508   5509      1
  6054   5508   5510      1
  6055   5511   5513      1
  6056   5513   5515      1
  6057   5514   5516      1
  6058   5515   5516      1
  6059   5515   5519      1
  6060   5517   5520      1
  6061   5520   5595      1
  6062   5521   5523      1
  6063   5522   5524      1
  6064   5523   5524      1
  6065   5523   5525      1
  6066   5524   5526      1
  6067   5525   5528      1
  6068   5526   5527      1
  6069   5526   5529      1
  6070   5528   5529      1
  6071   5528   5530      1
  6072   5529   5531      1
  6073   5530   5533      1
  6074   5535   5536      1
  6075   5536   5538      1
  6076   5537   5539      1
  6077   5538   5541      1
  6078   5540   5541      1
  6079   5541   5542      1
  6080   5541   5543      1
  6081   5543   5544      1
  6082   5544   5545      1
  6083   5547   5549      1
  6084   5547   5629      1
  6085   5548   5549      1
  6086   5549   5550      1
  6087   5550   5551      1
  6088   5550   5552      1
  6089   5553   5554      1
  6090   5554   5556      1
  6091   5555   5556      1
  6092   5556   5560      1
  6093   5557   5559      1
  6094   5558   5563      1
  6095   5559   5565      1
  6096   5560   5561      1
  6097   5560   5562      1
  6098   5561   5564      1
  6099   5563   5565      1
  6100   5564   5567      1
  6101   5564   5645      1
  6102   5565   5566      1
  6103   5568   5570      1
  6104   5569   5572      1
  6105   5571   5573      1
  6106   5572   5573      1
  6107   5572   5650      1
  6108   5573   5575      1
  6109   5574   5575      1
  6110   5575   5576      1
  6111   5576   5577      1
  6112   5576   5580      1
  6113   5577   5579      1
  6114   5577   5650      1
  6115   5578   5580      1
  6116   5579   5581      1
  6117   5579   5657      1
  6118   5580   5583      1
  6119   5581   5583      1
  6120   5582   5585      1
  6121   5582   5656      1
  6122   5583   5584      1
  6123   5585   5588      1
  6124   5585   5661      1
  6125   5586   5587      1
  6126   5586   5588      1
  6127   5588   5589      1
  6128   5589   5590      1
  6129   5589   5591      1
  6130   5591   5592      1
  6131   5591   5665      1
  6132   5593   5669      1
  6133   5594   5595      1
  6134   5597   5600      1
  6135   5598   5599      1
  6136   5599   5600      1
  6137   5599   5601      1
  6138   5600   5602      1
  6139   5601   5604      1
  6140   5602   5603      1
  6141   5602   5605      1
  6142   5604   5605      1
  6143   5604   5607      1
  6144   5605   5606      1
  6145   5606   5608      1
  6146   5606   5610      1
  6147   5607   5609      1
  6148   5609   5610      1
  6149   5610   5612      1
  6150   5611   5689      1
  6151   5614   5616      1
  6152   5614   5691      1
  6153   5615   5692      1
  6154   5616   5618      1
  6155   5616   5696      1
  6156   5618   5619      1
  6157   5618   5620      1
  6158   5621   5624      1
  6159   5622   5623      1
  6160   5622   5627      1
  6161   5624   5625      1
  6162   5625   5626      1
  6163   5625   5628      1
  6164   5627   5630      1
  6165   5628   5629      1
  6166   5628   5630      1
  6167   5630   5631      1
  6168   5631   5632      1
  6169   5632   5634      1
  6170   5632   5635      1
  6171   5633   5634      1
  6172   5634   5636      1
  6173   5635   5715      1
  6174   5636   5638      1
  6175   5636   5639      1
  6176   5637   5639      1
  6177   5638   5640      1
  6178   5638   5715      1
  6179   5639   5641      1
  6180   5640   5644      1
  6181   5640   5720      1
  6182   5641   5643      1
  6183   5641   5644      1
  6184   5642   5645      1
  6185   5644   5648      1
  6186   5645   5647      1
  6187   5648   5649      1
  6188   5648   5723      1
  6189   5650   5651      1
  6190   5651   5652      1
  6191   5651   5653      1
  6192   5653   5654      1
  6193   5653   5657      1
  6194   5655   5658      1
  6195   5656   5658      1
  6196   5658   5659      1
  6197   5659   5661      1
  6198   5659   5663      1
  6199   5660   5662      1
  6200   5661   5665      1
  6201   5662   5663      1
  6202   5662   5735      1
  6203   5663   5664      1
  6204   5664   5736      1
  6205   5665   5666      1
  6206   5667   5668      1
  6207   5667   5670      1
  6208   5671   5672      1
  6209   5671   5673      1
  6210   5671   5745      1
  6211   5672   5675      1
  6212   5673   5674      1
  6213   5673   5747      1
  6214   5674   5676      1
  6215   5675   5676      1
  6216   5675   5678      1
  6217   5676   5679      1
  6218   5679   5680      1
  6219   5679   5681      1
  6220   5682   5683      1
  6221   5682   5754      1
  6222   5683   5686      1
  6223   5683   5759      1
  6224   5684   5759      1
  6225   5685   5686      1
  6226   5685   5688      1
  6227   5686   5687      1
  6228   5687   5690      1
  6229   5688   5689      1
  6230   5689   5690      1
  6231   5690   5691      1
  6232   5692   5693      1
  6233   5692   5696      1
  6234   5693   5694      1
  6235   5694   5695      1
  6236   5694   5764      1
  6237   5695   5697      1
  6238   5695   5768      1
  6239   5696   5697      1
  6240   5697   5698      1
  6241   5699   5701      1
  6242   5700   5702      1
  6243   5701   5702      1
  6244   5701   5773      1
  6245   5702   5704      1
  6246   5704   5706      1
  6247   5704   5707      1
  6248   5705   5706      1
  6249   5706   5708      1
  6250   5707   5709      1
  6251   5707   5774      1
  6252   5708   5710      1
  6253   5708   5711      1
  6254   5709   5711      1
  6255   5709   5782      1
  6256   5711   5712      1
  6257   5715   5717      1
  6258   5716   5717      1
  6259   5717   5718      1
  6260   5718   5719      1
  6261   5718   5720      1
  6262   5720   5721      1
  6263   5721   5722      1
  6264   5721   5723      1
  6265   5723   5724      1
  6266   5725   5726      1
  6267   5726   5727      1
  6268   5727   5728      1
  6269   5727   5730      1
  6270   5729   5730      1
  6271   5730   5732      1
  6272   5731   5732      1
  6273   5731   5805      1
  6274   5732   5733      1
  6275   5733   5734      1
  6276   5733   5808      1
  6277   5735   5737      1
  6278   5735   5738      1
  6279   5736   5738      1
  6280   5737   5740      1
  6281   5738   5739      1
  6282   5739   5741      1
  6283   5739   5742      1
  6284   5740   5741      1
  6285   5741   5743      1
  6286   5742   5744      1
  6287   5745   5746      1
  6288   5746   5748      1
  6289   5747   5748      1
  6290   5747   5750      1
  6291   5748   5749      1
  6292   5749   5751      1
  6293   5749   5752      1
  6294   5751   5816      1
  6295   5753   5757      1
  6296   5754   5756      1
  6297   5755   5756      1
  6298   5755   5823      1
  6299   5755   5824      1
  6300   5756   5757      1
  6301   5757   5759      1
  6302   5758   5824      1
  6303   5760   5761      1
  6304   5761   5762      1
  6305   5762   5763      1
  6306   5762   5765      1
  6307   5764   5765      1
  6308   5765   5766      1
  6309   5766   5767      1
  6310   5766   5768      1
  6311   5768   5769      1
  6312   5770   5771      1
  6313   5771   5772      1
  6314   5771   5838      1
  6315   5772   5773      1
  6316   5773   5774      1
  6317   5774   5777      1
  6318   5775   5776      1
  6319   5775   5778      1
  6320   5775   5844      1
  6321   5776   5777      1
  6322   5776   5848      1
  6323   5777   5779      1
  6324   5777   5781      1
  6325   5778   5780      1
  6326   5781   5782      1
  6327   5781   5783      1
  6328   5782   5784      1
  6329   5785   5788      1
  6330   5786   5787      1
  6331   5787   5856      1
  6332   5788   5789      1
  6333   5789   5792      1
  6334   5790   5791      1
  6335   5792   5795      1
  6336   5794   5796      1
  6337   5795   5797      1
  6338   5796   5797      1
  6339   5797   5798      1
  6340   5798   5800      1
  6341   5798   5801      1
  6342   5800   5803      1
  6343   5804   5869      1
  6344   5805   5806      1
  6345   5806   5807      1
  6346   5806   5808      1
  6347   5808   5809      1
  6348   5809   5810      1
  6349   5809   5811      1
  6350   5813   5815      1
  6351   5814   5816      1
  6352   5815   5817      1
  6353   5817   5819      1
  6354   5817   5820      1
  6355   5817   5885      1
  6356   5818   5820      1
  6357   5819   5822      1
  6358   5820   5821      1
  6359   5820   5890      1
  6360   5822   5893      1
  6361   5824   5825      1
  6362   5825   5827      1
  6363   5825   5828      1
  6364   5827   5830      1
  6365   5828   5829      1
  6366   5829   5831      1
  6367   5829   5832      1
  6368   5830   5832      1
  6369   5832   5901      1
  6370   5835   5836      1
  6371   5836   5838      1
  6372   5837   5839      1
  6373   5837   5908      1
  6374   5840   5912      1
  6375   5841   5842      1
  6376   5841   5912      1
  6377   5841   5917      1
  6378   5842   5843      1
  6379   5842   5845      1
  6380   5843   5844      1
  6381   5843   5846      1
  6382   5846   5847      1
  6383   5846   5848      1
  6384   5848   5849      1
  6385   5850   5921      1
  6386   5851   5852      1
  6387   5852   5853      1
  6388   5852   5855      1
  6389   5853   5920      1
  6390   5854   5856      1
  6391   5855   5921      1
  6392   5855   5925      1
  6393   5858   5925      1
  6394   5861   5862      1
  6395   5861   5863      1
  6396   5861   5935      1
  6397   5862   5864      1
  6398   5862   5937      1
  6399   5863   5865      1
  6400   5864   5866      1
  6401   5865   5866      1
  6402   5866   5868      1
  6403   5867   5868      1
  6404   5868   5869      1
  6405   5869   5871      1
  6406   5870   5945      1
  6407   5871   5873      1
  6408   5873   5874      1
  6409   5875   5876      1
  6410   5876   5881      1
  6411   5876   5955      1
  6412   5877   5880      1
  6413   5879   5883      1
  6414   5884   5886      1
  6415   5884   5888      1
  6416   5885   5887      1
  6417   5886   5887      1
  6418   5888   5889      1
  6419   5889   5891      1
  6420   5890   5892      1
  6421   5890   5893      1
  6422   5893   5895      1
  6423   5895   5898      1
  6424   5896   5897      1
  6425   5897   5899      1
  6426   5899   5900      1
  6427   5901   5902      1
  6428   5901   5903      1
  6429   5903   5904      1
  6430   5906   5909      1
  6431   5907   5909      1
  6432   5908   5911      1
  6433   5909   5911      1
  6434   5910   5912      1
  6435   5911   5913      1
  6436   5915   5917      1
  6437   5916   5917      1
  6438   5917   5918      1
  6439   5920   5923      1
  6440   5922   5924      1
  6441   5923   5924      1
  6442   5924   5926      1
  6443   5925   5928      1
  6444   5926   5927      1
  6445   5926   5930      1
  6446   5928   5930      1
  6447   5929   5930      1
  6448   5931   5932      1
  6449   5932   5933      1
  6450   5933   5934      1
  6451   5936   5937      1
  6452   5938   5939      1
  6453   5939   5942      1
  6454   5940   5941      1
  6455   5940   5942      1
  6456   5942   5943      1
  6457   5943   5945      1
  6458   5943   5946      1
  6459   5944   5945      1
  6460   5947   5948      1
  6461   5947   5950      1
  6462   5950   5955      1
  6463   5951   5953      1
  6464   5952   5953      1
  6465   5953   5954      1
  6466   5955   5956      1
  6467   5958   5959     du
  6468   5959   5960     du
  6469   5960   5961     du
  6470   5961   5958     du
  6471   5962   5963     du
  6472   5963   5964     du
  6473   5964   5965     du
  6474   5965   5962     du
  6475   5961   5965     du
  6476   5962   5958     du
  6477   5960   5964     du
  6478   5963   5959     du
